MIT_Report_PartIII/Base_mod.raw
0,100.0


1,'Costa su    ',115.0,1,0.0,0.0,1,1,1.0774686091,-8.5006452358,1
2,'Bayamon     ',115.0,1,0.0,0.0,1,1,1.0681907124,-9.1362871593,1
3,'Rio Laja    ',115.0,1,0.0,0.0,1,1,1.0606536115,-10.6727099752,1
4,'Mayaguez    ',115.0,1,0.0,0.0,1,1,1.0741237207,-8.9158381562,1
5,'Aguadill    ',115.0,1,0.0,0.0,1,1,1.0684518631,-8.7805312319,1
6,'Mora        ',115.0,1,0.0,0.0,1,1,1.0697963215,-8.4987906788,1
7,'San Anto    ',115.0,1,0.0,0.0,1,1,1.0681994823,-8.6607351839,1
8,'Monacill    ',115.0,1,0.0,0.0,1,1,1.0671316069,-9.1691557126,1
9,'Aguas Bu    ',115.0,1,0.0,0.0,1,1,1.0688012399,-8.9817572506,1
10,'Aurora      ',115.0,1,0.0,0.0,1,1,1.072864964,-6.772962634,1
11,'Ecoelect    ',115.0,1,0.0,0.0,1,1,1.0540808624,-8.3700833512,1
12,'Arecibo     ',115.0,1,0.0,0.0,1,1,1.0587163017,-10.0295732739,1
13,'Toro Neg    ',115.0,1,0.0,0.0,1,1,1.0528431158,-9.5864448026,1
14,'Ponce       ',115.0,1,0.0,0.0,1,1,1.0583616549,-7.8963487387,1
15,'San Seba    ',115.0,1,0.0,0.0,1,1,1.0645329323,-9.6098148963,1
16,'Don Boco    ',115.0,1,0.0,0.0,1,1,1.0602581515,-9.9957894897,1
17,'Pajaros     ',115.0,1,0.0,0.0,1,1,1.0695623911,-8.8076330322,1
18,'Ciales      ',115.0,1,0.0,0.0,1,1,1.0660263408,-9.5028277689,1
19,'Dos Boca    ',115.0,1,0.0,0.0,1,1,1.0602301126,-9.9972013758,1
20,'Sabana L    ',115.0,1,0.0,0.0,1,1,1.0687994215,-8.8371556331,1
21,'Caguas      ',115.0,1,0.0,0.0,1,1,1.0675461232,-8.666563359,1
22,'San Juan    ',115.0,1,0.0,0.0,1,1,1.0667154752,-9.1921003942,1
23,'Puerto N    ',115.0,1,0.0,0.0,1,1,1.066731291,-9.1922402158,1
24,'Union Ca    ',115.0,1,0.0,0.0,1,1,1.0698688454,-8.6379900706,1
25,'San Juan    ',115.0,1,0.0,0.0,1,1,1.0666261251,-9.2102592734,1
26,'Hato Rey    ',115.0,1,0.0,0.0,1,1,1.0681383372,-9.0208129618,1
27,'Daguao      ',115.0,1,0.0,0.0,1,1,1.0683757366,-9.3975949181,1
28,'Trujillo    ',115.0,1,0.0,0.0,1,1,1.0675518527,-9.4027536131,1
29,'Fajardo     ',115.0,1,0.0,0.0,1,1,1.0651332866,-10.6082202185,1
30,'Aguirre     ',115.0,3,0.0,0.0,1,1,1.0851946025,0.0,1
31,'Maunabo     ',115.0,1,0.0,0.0,1,1,1.0638751624,-8.2761108714,1
32,'Candeler    ',115.0,1,0.0,0.0,1,1,1.0694978716,-8.794810294,1
33,'Humacao     ',115.0,1,0.0,0.0,1,1,1.0653217321,-9.3529592185,1
34,'Comerio     ',115.0,1,0.0,0.0,1,1,1.0656763993,-9.1785204688,1
35,'Coto Nor    ',115.0,1,0.0,0.0,1,1,1.0238266438,-15.0887842386,1
36,'Monte Ca    ',115.0,1,0.0,0.0,1,1,1.0195993508,-14.9772405545,1
37,'Central     ',115.0,1,0.0,0.0,1,1,1.0681603214,-8.0325233634,1
38,'Cayey       ',115.0,1,0.0,0.0,1,1,1.0697045367,-8.2574863965,1
39,'Toro Neg    ',115.0,1,0.0,0.0,1,1,1.0740500089,-9.0280722692,1
40,'Central     ',115.0,1,0.0,0.0,1,1,1.0678330875,-9.0321138225,1
41,'Planta d    ',115.0,1,0.0,0.0,1,1,1.0653664713,-9.0861198893,1
42,'Planta d    ',115.0,1,0.0,0.0,1,1,1.0681268,-8.4208111065,1
43,'Central     ',115.0,1,0.0,0.0,1,1,1.0697136572,-7.786538474,1
44,'Rio Blan    ',115.0,1,0.0,0.0,1,1,1.068399365,-9.603884122,1
45,'Quebrada    ',115.0,1,0.0,0.0,1,1,1.0596820156,-10.150479319,1
46,'Caonilla    ',115.0,2,0.0,0.0,1,1,1.0659874086,-9.778913868,1
47,'Loiza Ta    ',115.0,1,0.0,0.0,1,1,1.0589769393,-9.7633528436,1
48,'Yabucoa     ',115.0,1,0.0,0.0,1,1,1.0696045807,-8.5626732365,1
49,'Planta H    ',115.0,1,0.0,0.0,1,1,1.0653416145,-9.1255213687,1
50,'Olimpo T    ',115.0,1,0.0,0.0,1,1,1.0696522446,-7.8088326681,1
51,'Aguas Bu    ',230.0,1,0.0,0.0,1,1,1.0898806546,-8.3410986082,1
52,'Aguirre_    ',230.0,1,0.0,0.0,1,1,1.0999725863,-6.8137873919,1
53,'Aurora_H    ',230.0,1,0.0,0.0,1,1,1.0902779102,-8.1856313156,1
54,'Bayamon_    ',230.0,1,0.0,0.0,1,1,1.0855797959,-8.8548634141,1
55,'Candeler    ',230.0,1,0.0,0.0,1,1,1.0860277631,-8.3746537632,1
56,'Comerio_    ',230.0,1,0.0,0.0,1,1,1.0683283267,-9.0067169095,1
57,'Costa su    ',230.0,1,0.0,0.0,1,1,1.098006611,-8.1786098296,1
58,'Coto Nor    ',230.0,1,0.0,0.0,1,1,1.0769676821,-10.0138317337,1
59,'Mayaguez    ',230.0,1,0.0,0.0,1,1,1.0932462196,-8.4935260319,1
60,'Rio Blan    ',230.0,1,0.0,0.0,1,1,1.0844160379,-8.8195408044,1
61,'Sabana L    ',230.0,1,0.0,0.0,1,1,1.0886591857,-8.5198286054,1
62,'CostaSkVSub0',38.0,2,0.0,0.0,1,1,1.0669807303,-8.0072809756,1
63,'Yacuo_kVSub1',38.0,2,0.0,0.0,1,1,1.0506914655,-10.5979467384,1
64,'GarzaskVSub2',38.0,2,0.0,0.0,1,1,1.0668574752,-8.041683583,1
65,'MayagukVSub7',38.0,2,0.0,0.0,1,1,1.0506110036,-10.6075425086,1
66,'SJSP_kVSub6 ',38.0,2,0.0,0.0,1,1,1.073377556,-7.440769218,1
67,'ToroNekVSub3',38.0,2,0.0,0.0,1,1,1.0705271293,-8.0833192299,1
68,'AES_kVSub4  ',38.0,2,0.0,0.0,1,1,1.0729513829,-8.0349972187,1
69,'NaranjkVSub5',38.0,2,0.0,0.0,1,1,1.072831131,-7.8232109143,1
70,'PaloSeckVSub8',38.0,2,0.0,0.0,1,1,1.0734317134,-7.5565908122,1
71,'kVSub306    ',38.0,2,0.0,0.0,1,1,1.0688750832,-8.2842881756,1
72,'kVSub19     ',38.0,1,0.0,0.0,1,1,1.0563096097,-10.3685021063,1
73,'kVSub21     ',38.0,1,0.0,0.0,1,1,1.0696012197,-8.1337806448,1
74,'kVSub28     ',38.0,1,0.0,0.0,1,1,1.0680757296,-8.3823646089,1
75,'kVSub46     ',38.0,1,0.0,0.0,1,1,1.070131649,-8.1158773597,1
76,'kVSub66     ',38.0,1,0.0,0.0,1,1,1.050970856,-10.5434844859,1
77,'kVSub124    ',38.0,1,0.0,0.0,1,1,1.0716163906,-8.0499189087,1
78,'kVSub41     ',38.0,1,0.0,0.0,1,1,1.0666840603,-8.0864966594,1
79,'kVSub102    ',38.0,1,0.0,0.0,1,1,1.0695919778,-8.1481549735,1
80,'kVSub139    ',38.0,1,0.0,0.0,1,1,1.050799968,-10.5971960796,1
81,'kVSub285    ',38.0,1,0.0,0.0,1,1,1.0454642618,-9.34713047,1
82,'kVSub297    ',38.0,1,0.0,0.0,1,1,1.0525942269,-12.0046368164,1
83,'kVSub136    ',38.0,1,0.0,0.0,1,1,1.0727179849,-7.6471745025,1
84,'kVSub142    ',38.0,1,0.0,0.0,1,1,1.0493861463,-11.1158372455,1
85,'kVSub192    ',38.0,1,0.0,0.0,1,1,1.057946482,-10.1970934346,1
86,'kVSub294    ',38.0,1,0.0,0.0,1,1,0.9806798383,-19.2809342792,1
87,'kVSub88     ',38.0,1,0.0,0.0,1,1,1.0624506001,-9.4717717197,1
88,'kVSub83     ',38.0,1,0.0,0.0,1,1,1.0667985021,-8.0497037304,1
89,'kVSub239    ',38.0,1,0.0,0.0,1,1,1.0592257541,-10.6293595527,1
90,'kVSub245    ',38.0,1,0.0,0.0,1,1,1.0731714182,-7.6106551634,1
91,'kVSub264    ',38.0,1,0.0,0.0,1,1,1.0579593733,-10.2336198503,1
92,'kVSub299    ',38.0,1,0.0,0.0,1,1,1.0681000419,-8.3823696048,1
93,'kVSub165    ',38.0,1,0.0,0.0,1,1,1.0506849901,-10.6027978661,1
94,'kVSub182    ',38.0,1,0.0,0.0,1,1,1.050643946,-10.5997051521,1
95,'kVSub288    ',38.0,1,0.0,0.0,1,1,1.0458130138,-10.381997375,1
96,'kVSub125    ',38.0,1,0.0,0.0,1,1,1.0707156978,-8.0661806923,1
97,'kVSub230    ',38.0,1,0.0,0.0,1,1,1.0695495101,-8.1548981592,1
98,'kVSub54     ',38.0,1,0.0,0.0,1,1,1.0717606133,-8.0338947122,1
99,'kVSub100    ',38.0,1,0.0,0.0,1,1,1.0726249849,-8.0655263163,1
100,'kVSub260    ',38.0,1,0.0,0.0,1,1,1.0578671835,-10.2465456181,1
101,'kVSub53     ',38.0,1,0.0,0.0,1,1,1.0551981452,-10.6605960236,1
102,'kVSub58     ',38.0,1,0.0,0.0,1,1,1.0717749002,-8.0987788257,1
103,'kVSub178    ',38.0,1,0.0,0.0,1,1,0.9667027645,-21.1830268238,1
104,'kVSub70     ',38.0,1,0.0,0.0,1,1,1.0723875401,-8.0757856024,1
105,'kVSub101    ',38.0,1,0.0,0.0,1,1,1.0696023292,-8.1452711173,1
106,'kVSub103    ',38.0,1,0.0,0.0,1,1,1.0684368052,-8.3296008927,1
107,'kVSub104    ',38.0,1,0.0,0.0,1,1,1.0681101064,-8.376991223,1
108,'kVSub105    ',38.0,1,0.0,0.0,1,1,1.0681018147,-8.3779939732,1
109,'kVSub107    ',38.0,1,0.0,0.0,1,1,1.0699667432,-8.1296976426,1
110,'kVSub108    ',38.0,1,0.0,0.0,1,1,1.0699598401,-8.13053158,1
111,'kVSub109    ',38.0,1,0.0,0.0,1,1,1.0666818694,-8.0434570267,1
112,'kVSub11     ',38.0,1,0.0,0.0,1,1,1.0,0.0,1
113,'kVSub110    ',38.0,1,0.0,0.0,1,1,1.0666848551,-8.0430951659,1
114,'kVSub111    ',38.0,1,0.0,0.0,1,1,1.0666818694,-8.0434570267,1
115,'kVSub112    ',38.0,1,0.0,0.0,1,1,1.0666818694,-8.0434570267,1
116,'kVSub113    ',38.0,1,0.0,0.0,1,1,1.0666848551,-8.0430951659,1
117,'kVSub114    ',38.0,1,0.0,0.0,1,1,1.0666848551,-8.0430951659,1
118,'kVSub115    ',38.0,1,0.0,0.0,1,1,1.0699667432,-8.1296976426,1
119,'kVSub116    ',38.0,1,0.0,0.0,1,1,1.0,0.0,1
120,'kVSub117    ',38.0,1,0.0,0.0,1,1,1.0,0.0,1
121,'kVSub118    ',38.0,1,0.0,0.0,1,1,1.0702041035,-8.1089926195,1
122,'kVSub120    ',38.0,1,0.0,0.0,1,1,1.0702041035,-8.1089926195,1
123,'kVSub121    ',38.0,1,0.0,0.0,1,1,1.0701001675,-8.1159373745,1
124,'kVSub122    ',38.0,1,0.0,0.0,1,1,1.0702023475,-8.1081556219,1
125,'kVSub123    ',38.0,1,0.0,0.0,1,1,1.0717825265,-8.0498536527,1
126,'kVSub126    ',38.0,1,0.0,0.0,1,1,0.9663636875,-21.2282686881,1
127,'kVSub127    ',38.0,1,0.0,0.0,1,1,0.9662915303,-21.2379163054,1
128,'kVSub128    ',38.0,1,0.0,0.0,1,1,1.0,0.0,1
129,'kVSub129    ',38.0,1,0.0,0.0,1,1,1.0728979804,-7.6672579428,1
130,'kVSub13     ',38.0,1,0.0,0.0,1,1,1.0681842826,-8.366805554,1
131,'kVSub130    ',38.0,1,0.0,0.0,1,1,1.0732494049,-7.4770020204,1
132,'kVSub131    ',38.0,1,0.0,0.0,1,1,1.0731714676,-7.6159913097,1
133,'kVSub132    ',38.0,1,0.0,0.0,1,1,1.0722959568,-7.8174289369,1
134,'kVSub133    ',38.0,1,0.0,0.0,1,1,1.0731640195,-7.6142172159,1
135,'kVSub134    ',38.0,1,0.0,0.0,1,1,1.0732922221,-7.461438097,1
136,'kVSub135    ',38.0,1,0.0,0.0,1,1,1.0507115774,-10.6021674647,1
137,'kVSub137    ',38.0,1,0.0,0.0,1,1,1.0730553791,-7.5584736772,1
138,'kVSub138    ',38.0,1,0.0,0.0,1,1,1.0726601225,-7.7474629717,1
139,'kVSub14     ',38.0,1,0.0,0.0,1,1,1.0,0.0,1
140,'kVSub140    ',38.0,1,0.0,0.0,1,1,1.0506805771,-10.6025252088,1
141,'kVSub141    ',38.0,1,0.0,0.0,1,1,1.0725304803,-7.7319302744,1
142,'kVSub143    ',38.0,1,0.0,0.0,1,1,1.0493428898,-11.1203565885,1
143,'kVSub144    ',38.0,1,0.0,0.0,1,1,1.0732773789,-7.4632256633,1
144,'kVSub145    ',38.0,1,0.0,0.0,1,1,1.0725601909,-7.7283502031,1
145,'kVSub147    ',38.0,1,0.0,0.0,1,1,1.0524731637,-12.019506799,1
146,'kVSub148    ',38.0,1,0.0,0.0,1,1,1.0732985835,-7.4606720123,1
147,'kVSub149    ',38.0,1,0.0,0.0,1,1,1.0732943428,-7.4611827345,1
148,'kVSub150    ',38.0,1,0.0,0.0,1,1,1.0505881858,-10.6100829861,1
149,'kVSub151    ',38.0,1,0.0,0.0,1,1,0.9660642782,-21.2681365446,1
150,'kVSub152    ',38.0,1,0.0,0.0,1,1,1.0732943428,-7.4611827345,1
151,'kVSub153    ',38.0,1,0.0,0.0,1,1,0.9805000937,-19.3046197655,1
152,'kVSub154    ',38.0,1,0.0,0.0,1,1,1.0726388319,-7.6877593187,1
153,'kVSub155    ',38.0,1,0.0,0.0,1,1,1.0506269023,-10.6050922201,1
154,'kVSub156    ',38.0,1,0.0,0.0,1,1,1.0728376672,-7.7367153965,1
155,'kVSub157    ',38.0,1,0.0,0.0,1,1,1.0506121242,-10.6065376148,1
156,'kVSub158    ',38.0,1,0.0,0.0,1,1,1.0506312346,-10.6045592171,1
157,'kVSub159    ',38.0,1,0.0,0.0,1,1,1.0505925183,-10.6095499438,1
158,'kVSub16     ',38.0,1,0.0,0.0,1,1,1.0,0.0,1
159,'kVSub161    ',38.0,1,0.0,0.0,1,1,1.0505968749,-10.6088805278,1
160,'kVSub162    ',38.0,1,0.0,0.0,1,1,1.0505935053,-10.6092951125,1
161,'kVSub163    ',38.0,1,0.0,0.0,1,1,1.0506121242,-10.6065376148,1
162,'kVSub164    ',38.0,1,0.0,0.0,1,1,1.0732985835,-7.4606720123,1
163,'kVSub166    ',38.0,1,0.0,0.0,1,1,0.9657076411,-21.3158117803,1
164,'kVSub168    ',38.0,1,0.0,0.0,1,1,1.0726910449,-7.7698567856,1
165,'kVSub169    ',38.0,1,0.0,0.0,1,1,1.0727142168,-7.7735371315,1
166,'kVSub17     ',38.0,1,0.0,0.0,1,1,1.0680950259,-8.382208833,1
167,'kVSub170    ',38.0,1,0.0,0.0,1,1,1.0727515577,-7.7572206705,1
168,'kVSub172    ',38.0,1,0.0,0.0,1,1,0.9656515128,-21.3233194227,1
169,'kVSub173    ',38.0,1,0.0,0.0,1,1,0.9658826011,-21.2924112008,1
170,'kVSub174    ',38.0,1,0.0,0.0,1,1,1.0507527514,-10.5847283389,1
171,'kVSub175    ',38.0,1,0.0,0.0,1,1,0.9657175395,-21.3144869929,1
172,'kVSub176    ',38.0,1,0.0,0.0,1,1,0.9657109409,-21.3153701815,1
173,'kVSub177    ',38.0,1,0.0,0.0,1,1,0.9665340915,-21.2055060242,1
174,'kVSub179    ',38.0,1,0.0,0.0,1,1,1.072438222,-7.8002862871,1
175,'kVSub18     ',38.0,1,0.0,0.0,1,1,1.0,0.0,1
176,'kVSub180    ',38.0,1,0.0,0.0,1,1,1.0729348296,-7.6807436,1
177,'kVSub181    ',38.0,1,0.0,0.0,1,1,0.9805951939,-19.2920860986,1
178,'kVSub183    ',38.0,1,0.0,0.0,1,1,1.0505925183,-10.6095499438,1
179,'kVSub184    ',38.0,1,0.0,0.0,1,1,0.9664611996,-21.2152053577,1
180,'kVSub185    ',38.0,1,0.0,0.0,1,1,0.9657505355,-21.3100712309,1
181,'kVSub186    ',38.0,1,0.0,0.0,1,1,1.0,0.0,1
182,'kVSub187    ',38.0,1,0.0,0.0,1,1,1.0,0.0,1
183,'kVSub188    ',38.0,1,0.0,0.0,1,1,1.0,0.0,1
184,'kVSub189    ',38.0,1,0.0,0.0,1,1,1.0454134628,-9.3534107504,1
185,'kVSub190    ',38.0,1,0.0,0.0,1,1,0.9656911442,-21.3180198197,1
186,'kVSub191    ',38.0,1,0.0,0.0,1,1,1.0,0.0,1
187,'kVSub193    ',38.0,1,0.0,0.0,1,1,1.0,0.0,1
188,'kVSub194    ',38.0,1,0.0,0.0,1,1,1.0,0.0,1
189,'kVSub195    ',38.0,1,0.0,0.0,1,1,1.0,0.0,1
190,'kVSub196    ',38.0,1,0.0,0.0,1,1,1.0454287017,-9.3515266022,1
191,'kVSub197    ',38.0,1,0.0,0.0,1,1,1.0725601909,-7.7283502031,1
192,'kVSub20     ',38.0,1,0.0,0.0,1,1,1.0680620288,-8.3828073905,1
193,'kVSub200    ',38.0,1,0.0,0.0,1,1,0.9657175395,-21.3144869929,1
194,'kVSub203    ',38.0,1,0.0,0.0,1,1,1.049344393,-11.1209797858,1
195,'kVSub204    ',38.0,1,0.0,0.0,1,1,0.9665406845,-21.2046243391,1
196,'kVSub205    ',38.0,1,0.0,0.0,1,1,1.0578831527,-10.2437623768,1
197,'kVSub206    ',38.0,1,0.0,0.0,1,1,1.0705378646,-8.080353307,1
198,'kVSub207    ',38.0,1,0.0,0.0,1,1,1.0525336891,-12.0120713799,1
199,'kVSub208    ',38.0,1,0.0,0.0,1,1,1.0722991783,-7.8170404778,1
200,'kVSub209    ',38.0,1,0.0,0.0,1,1,1.072316495,-7.8149533732,1
...
0 / END OF BUS DATA, BEGIN LOAD DATA
62,' C',1,1,1,3.1402522837,1.0321510119,0.0,0.0,0.0,0.0,1
62,' I',1,1,1,14.6545106572,4.8167047222,0.0,0.0,0.0,0.0,1
62,' P',1,1,1,3.1402522837,1.0321510119,0.0,0.0,0.0,0.0,1
63,' C',1,1,1,1.6723237014,0.5496662194,0.0,0.0,0.0,0.0,1
63,' I',1,1,1,7.8041772731,2.5651090237,0.0,0.0,0.0,0.0,1
63,' P',1,1,1,1.6723237014,0.5496662194,0.0,0.0,0.0,0.0,1
64,' C',1,1,1,6.3887612707,2.0998842815,0.0,0.0,0.0,0.0,1
64,' I',1,1,1,29.8142192634,9.7994599802,0.0,0.0,0.0,0.0,1
64,' P',1,1,1,6.3887612707,2.0998842815,0.0,0.0,0.0,0.0,1
65,' C',1,1,1,0.5574412338,0.1832220731,0.0,0.0,0.0,0.0,1
65,' I',1,1,1,2.6013924244,0.8550363412,0.0,0.0,0.0,0.0,1
65,' P',1,1,1,0.5574412338,0.1832220731,0.0,0.0,0.0,0.0,1
66,' C',1,1,1,0.5574412338,0.1832220731,0.0,0.0,0.0,0.0,1
66,' I',1,1,1,2.6013924244,0.8550363412,0.0,0.0,0.0,0.0,1
66,' P',1,1,1,0.5574412338,0.1832220731,0.0,0.0,0.0,0.0,1
67,' C',1,1,1,1.6723237014,0.5496662194,0.0,0.0,0.0,0.0,1
67,' I',1,1,1,7.8041772731,2.5651090237,0.0,0.0,0.0,0.0,1
67,' P',1,1,1,1.6723237014,0.5496662194,0.0,0.0,0.0,0.0,1
68,' C',1,1,1,1.6723237014,0.5496662194,0.0,0.0,0.0,0.0,1
68,' I',1,1,1,7.8041772731,2.5651090237,0.0,0.0,0.0,0.0,1
68,' P',1,1,1,1.6723237014,0.5496662194,0.0,0.0,0.0,0.0,1
69,' C',1,1,1,1.6723237014,0.5496662194,0.0,0.0,0.0,0.0,1
69,' I',1,1,1,7.8041772731,2.5651090237,0.0,0.0,0.0,0.0,1
69,' P',1,1,1,1.6723237014,0.5496662194,0.0,0.0,0.0,0.0,1
70,' C',1,1,1,0.5574412338,0.1832220731,0.0,0.0,0.0,0.0,1
70,' I',1,1,1,2.6013924244,0.8550363412,0.0,0.0,0.0,0.0,1
70,' P',1,1,1,0.5574412338,0.1832220731,0.0,0.0,0.0,0.0,1
71,' C',1,1,1,1.6723237014,0.5496662194,0.0,0.0,0.0,0.0,1
71,' I',1,1,1,7.8041772731,2.5651090237,0.0,0.0,0.0,0.0,1
71,' P',1,1,1,1.6723237014,0.5496662194,0.0,0.0,0.0,0.0,1
72,' C',1,1,1,6.3887612707,2.0998842815,0.0,0.0,0.0,0.0,1
72,' I',1,1,1,29.8142192634,9.7994599802,0.0,0.0,0.0,0.0,1
72,' P',1,1,1,6.3887612707,2.0998842815,0.0,0.0,0.0,0.0,1
73,' C',1,1,1,3.1402522837,1.0321510119,0.0,0.0,0.0,0.0,1
73,' I',1,1,1,14.6545106572,4.8167047222,0.0,0.0,0.0,0.0,1
73,' P',1,1,1,3.1402522837,1.0321510119,0.0,0.0,0.0,0.0,1
74,' C',1,1,1,6.3887612707,2.0998842815,0.0,0.0,0.0,0.0,1
74,' I',1,1,1,29.8142192634,9.7994599802,0.0,0.0,0.0,0.0,1
74,' P',1,1,1,6.3887612707,2.0998842815,0.0,0.0,0.0,0.0,1
75,' C',1,1,1,6.3887612707,2.0998842815,0.0,0.0,0.0,0.0,1
75,' I',1,1,1,29.8142192634,9.7994599802,0.0,0.0,0.0,0.0,1
75,' P',1,1,1,6.3887612707,2.0998842815,0.0,0.0,0.0,0.0,1
76,' C',1,1,1,3.1402522837,1.0321510119,0.0,0.0,0.0,0.0,1
76,' I',1,1,1,14.6545106572,4.8167047222,0.0,0.0,0.0,0.0,1
76,' P',1,1,1,3.1402522837,1.0321510119,0.0,0.0,0.0,0.0,1
77,' C',1,1,1,3.1402522837,1.0321510119,0.0,0.0,0.0,0.0,1
77,' I',1,1,1,14.6545106572,4.8167047222,0.0,0.0,0.0,0.0,1
77,' P',1,1,1,3.1402522837,1.0321510119,0.0,0.0,0.0,0.0,1
78,' C',1,1,1,6.3887612707,2.0998842815,0.0,0.0,0.0,0.0,1
78,' I',1,1,1,29.8142192634,9.7994599802,0.0,0.0,0.0,0.0,1
78,' P',1,1,1,6.3887612707,2.0998842815,0.0,0.0,0.0,0.0,1
79,' C',1,1,1,6.3887612707,2.0998842815,0.0,0.0,0.0,0.0,1
79,' I',1,1,1,29.8142192634,9.7994599802,0.0,0.0,0.0,0.0,1
79,' P',1,1,1,6.3887612707,2.0998842815,0.0,0.0,0.0,0.0,1
80,' C',1,1,1,3.1402522837,1.0321510119,0.0,0.0,0.0,0.0,1
80,' I',1,1,1,14.6545106572,4.8167047222,0.0,0.0,0.0,0.0,1
80,' P',1,1,1,3.1402522837,1.0321510119,0.0,0.0,0.0,0.0,1
81,' C',1,1,1,3.1402522837,1.0321510119,0.0,0.0,0.0,0.0,1
81,' I',1,1,1,14.6545106572,4.8167047222,0.0,0.0,0.0,0.0,1
81,' P',1,1,1,3.1402522837,1.0321510119,0.0,0.0,0.0,0.0,1
82,' C',1,1,1,6.3887612707,2.0998842815,0.0,0.0,0.0,0.0,1
82,' I',1,1,1,29.8142192634,9.7994599802,0.0,0.0,0.0,0.0,1
82,' P',1,1,1,6.3887612707,2.0998842815,0.0,0.0,0.0,0.0,1
83,' C',1,1,1,6.3887612707,2.0998842815,0.0,0.0,0.0,0.0,1
83,' I',1,1,1,29.8142192634,9.7994599802,0.0,0.0,0.0,0.0,1
83,' P',1,1,1,6.3887612707,2.0998842815,0.0,0.0,0.0,0.0,1
84,' C',1,1,1,6.3887612707,2.0998842815,0.0,0.0,0.0,0.0,1
84,' I',1,1,1,29.8142192634,9.7994599802,0.0,0.0,0.0,0.0,1
84,' P',1,1,1,6.3887612707,2.0998842815,0.0,0.0,0.0,0.0,1
85,' C',1,1,1,6.3887612707,2.0998842815,0.0,0.0,0.0,0.0,1
85,' I',1,1,1,29.8142192634,9.7994599802,0.0,0.0,0.0,0.0,1
85,' P',1,1,1,6.3887612707,2.0998842815,0.0,0.0,0.0,0.0,1
86,' C',1,1,1,6.3887612707,2.0998842815,0.0,0.0,0.0,0.0,1
86,' I',1,1,1,29.8142192634,9.7994599802,0.0,0.0,0.0,0.0,1
86,' P',1,1,1,6.3887612707,2.0998842815,0.0,0.0,0.0,0.0,1
87,' C',1,1,1,6.3887612707,2.0998842815,0.0,0.0,0.0,0.0,1
87,' I',1,1,1,29.8142192634,9.7994599802,0.0,0.0,0.0,0.0,1
87,' P',1,1,1,6.3887612707,2.0998842815,0.0,0.0,0.0,0.0,1
88,' C',1,1,1,6.3887612707,2.0998842815,0.0,0.0,0.0,0.0,1
88,' I',1,1,1,29.8142192634,9.7994599802,0.0,0.0,0.0,0.0,1
88,' P',1,1,1,6.3887612707,2.0998842815,0.0,0.0,0.0,0.0,1
89,' C',1,1,1,6.3887612707,2.0998842815,0.0,0.0,0.0,0.0,1
89,' I',1,1,1,29.8142192634,9.7994599802,0.0,0.0,0.0,0.0,1
89,' P',1,1,1,6.3887612707,2.0998842815,0.0,0.0,0.0,0.0,1
90,' C',1,1,1,6.3887612707,2.0998842815,0.0,0.0,0.0,0.0,1
90,' I',1,1,1,29.8142192634,9.7994599802,0.0,0.0,0.0,0.0,1
90,' P',1,1,1,6.3887612707,2.0998842815,0.0,0.0,0.0,0.0,1
91,' C',1,1,1,6.3887612707,2.0998842815,0.0,0.0,0.0,0.0,1
91,' I',1,1,1,29.8142192634,9.7994599802,0.0,0.0,0.0,0.0,1
91,' P',1,1,1,6.3887612707,2.0998842815,0.0,0.0,0.0,0.0,1
92,' C',1,1,1,3.1402522837,1.0321510119,0.0,0.0,0.0,0.0,1
92,' I',1,1,1,14.6545106572,4.8167047222,0.0,0.0,0.0,0.0,1
92,' P',1,1,1,3.1402522837,1.0321510119,0.0,0.0,0.0,0.0,1
93,' C',1,1,1,6.3887612707,2.0998842815,0.0,0.0,0.0,0.0,1
93,' I',1,1,1,29.8142192634,9.7994599802,0.0,0.0,0.0,0.0,1
93,' P',1,1,1,6.3887612707,2.0998842815,0.0,0.0,0.0,0.0,1
94,' C',1,1,1,3.1402522837,1.0321510119,0.0,0.0,0.0,0.0,1
94,' I',1,1,1,14.6545106572,4.8167047222,0.0,0.0,0.0,0.0,1
94,' P',1,1,1,3.1402522837,1.0321510119,0.0,0.0,0.0,0.0,1
95,' C',1,1,1,3.1402522837,1.0321510119,0.0,0.0,0.0,0.0,1
95,' I',1,1,1,14.6545106572,4.8167047222,0.0,0.0,0.0,0.0,1
95,' P',1,1,1,3.1402522837,1.0321510119,0.0,0.0,0.0,0.0,1
96,' C',1,1,1,3.1402522837,1.0321510119,0.0,0.0,0.0,0.0,1
96,' I',1,1,1,14.6545106572,4.8167047222,0.0,0.0,0.0,0.0,1
96,' P',1,1,1,3.1402522837,1.0321510119,0.0,0.0,0.0,0.0,1
97,' C',1,1,1,3.1402522837,1.0321510119,0.0,0.0,0.0,0.0,1
97,' I',1,1,1,14.6545106572,4.8167047222,0.0,0.0,0.0,0.0,1
97,' P',1,1,1,3.1402522837,1.0321510119,0.0,0.0,0.0,0.0,1
98,' C',1,1,1,3.1402522837,1.0321510119,0.0,0.0,0.0,0.0,1
98,' I',1,1,1,14.6545106572,4.8167047222,0.0,0.0,0.0,0.0,1
98,' P',1,1,1,3.1402522837,1.0321510119,0.0,0.0,0.0,0.0,1
99,' C',1,1,1,6.3887612707,2.0998842815,0.0,0.0,0.0,0.0,1
99,' I',1,1,1,29.8142192634,9.7994599802,0.0,0.0,0.0,0.0,1
99,' P',1,1,1,6.3887612707,2.0998842815,0.0,0.0,0.0,0.0,1
100,' C',1,1,1,3.1402522837,1.0321510119,0.0,0.0,0.0,0.0,1
100,' I',1,1,1,14.6545106572,4.8167047222,0.0,0.0,0.0,0.0,1
100,' P',1,1,1,3.1402522837,1.0321510119,0.0,0.0,0.0,0.0,1
101,' C',1,1,1,3.1402522837,1.0321510119,0.0,0.0,0.0,0.0,1
101,' I',1,1,1,14.6545106572,4.8167047222,0.0,0.0,0.0,0.0,1
101,' P',1,1,1,3.1402522837,1.0321510119,0.0,0.0,0.0,0.0,1
102,' C',1,1,1,6.3887612707,2.0998842815,0.0,0.0,0.0,0.0,1
102,' I',1,1,1,29.8142192634,9.7994599802,0.0,0.0,0.0,0.0,1
102,' P',1,1,1,6.3887612707,2.0998842815,0.0,0.0,0.0,0.0,1
103,' C',1,1,1,6.3887612707,2.0998842815,0.0,0.0,0.0,0.0,1
103,' I',1,1,1,29.8142192634,9.7994599802,0.0,0.0,0.0,0.0,1
103,' P',1,1,1,6.3887612707,2.0998842815,0.0,0.0,0.0,0.0,1
104,' C',1,1,1,3.1402522837,1.0321510119,0.0,0.0,0.0,0.0,1
104,' I',1,1,1,14.6545106572,4.8167047222,0.0,0.0,0.0,0.0,1
104,' P',1,1,1,3.1402522837,1.0321510119,0.0,0.0,0.0,0.0,1
105,' C',1,1,1,1.6723237014,0.5496662194,0.0,0.0,0.0,0.0,1
105,' I',1,1,1,7.8041772731,2.5651090237,0.0,0.0,0.0,0.0,1
105,' P',1,1,1,1.6723237014,0.5496662194,0.0,0.0,0.0,0.0,1
106,' C',1,1,1,1.6723237014,0.5496662194,0.0,0.0,0.0,0.0,1
106,' I',1,1,1,7.8041772731,2.5651090237,0.0,0.0,0.0,0.0,1
106,' P',1,1,1,1.6723237014,0.5496662194,0.0,0.0,0.0,0.0,1
107,' C',1,1,1,1.6723237014,0.5496662194,0.0,0.0,0.0,0.0,1
107,' I',1,1,1,7.8041772731,2.5651090237,0.0,0.0,0.0,0.0,1
107,' P',1,1,1,1.6723237014,0.5496662194,0.0,0.0,0.0,0.0,1
108,' C',1,1,1,0.5574412338,0.1832220731,0.0,0.0,0.0,0.0,1
108,' I',1,1,1,2.6013924244,0.8550363412,0.0,0.0,0.0,0.0,1
108,' P',1,1,1,0.5574412338,0.1832220731,0.0,0.0,0.0,0.0,1
109,' C',1,1,1,0.5574412338,0.1832220731,0.0,0.0,0.0,0.0,1
109,' I',1,1,1,2.6013924244,0.8550363412,0.0,0.0,0.0,0.0,1
109,' P',1,1,1,0.5574412338,0.1832220731,0.0,0.0,0.0,0.0,1
110,' C',1,1,1,1.6723237014,0.5496662194,0.0,0.0,0.0,0.0,1
110,' I',1,1,1,7.8041772731,2.5651090237,0.0,0.0,0.0,0.0,1
110,' P',1,1,1,1.6723237014,0.5496662194,0.0,0.0,0.0,0.0,1
111,' C',1,1,1,1.6723237014,0.5496662194,0.0,0.0,0.0,0.0,1
111,' I',1,1,1,7.8041772731,2.5651090237,0.0,0.0,0.0,0.0,1
111,' P',1,1,1,1.6723237014,0.5496662194,0.0,0.0,0.0,0.0,1
112,' C',1,1,1,1.6723237014,0.5496662194,0.0,0.0,0.0,0.0,1
112,' I',1,1,1,7.8041772731,2.5651090237,0.0,0.0,0.0,0.0,1
112,' P',1,1,1,1.6723237014,0.5496662194,0.0,0.0,0.0,0.0,1
113,' C',1,1,1,0.5574412338,0.1832220731,0.0,0.0,0.0,0.0,1
113,' I',1,1,1,2.6013924244,0.8550363412,0.0,0.0,0.0,0.0,1
113,' P',1,1,1,0.5574412338,0.1832220731,0.0,0.0,0.0,0.0,1
114,' C',1,1,1,1.6723237014,0.5496662194,0.0,0.0,0.0,0.0,1
114,' I',1,1,1,7.8041772731,2.5651090237,0.0,0.0,0.0,0.0,1
114,' P',1,1,1,1.6723237014,0.5496662194,0.0,0.0,0.0,0.0,1
115,' C',1,1,1,1.6723237014,0.5496662194,0.0,0.0,0.0,0.0,1
115,' I',1,1,1,7.8041772731,2.5651090237,0.0,0.0,0.0,0.0,1
115,' P',1,1,1,1.6723237014,0.5496662194,0.0,0.0,0.0,0.0,1
116,' C',1,1,1,0.5574412338,0.1832220731,0.0,0.0,0.0,0.0,1
116,' I',1,1,1,2.6013924244,0.8550363412,0.0,0.0,0.0,0.0,1
116,' P',1,1,1,0.5574412338,0.1832220731,0.0,0.0,0.0,0.0,1
117,' C',1,1,1,0.5574412338,0.1832220731,0.0,0.0,0.0,0.0,1
117,' I',1,1,1,2.6013924244,0.8550363412,0.0,0.0,0.0,0.0,1
117,' P',1,1,1,0.5574412338,0.1832220731,0.0,0.0,0.0,0.0,1
118,' C',1,1,1,0.5574412338,0.1832220731,0.0,0.0,0.0,0.0,1
118,' I',1,1,1,2.6013924244,0.8550363412,0.0,0.0,0.0,0.0,1
118,' P',1,1,1,0.5574412338,0.1832220731,0.0,0.0,0.0,0.0,1
119,' C',1,1,1,0.5574412338,0.1832220731,0.0,0.0,0.0,0.0,1
119,' I',1,1,1,2.6013924244,0.8550363412,0.0,0.0,0.0,0.0,1
119,' P',1,1,1,0.5574412338,0.1832220731,0.0,0.0,0.0,0.0,1
120,' C',1,1,1,1.6723237014,0.5496662194,0.0,0.0,0.0,0.0,1
120,' I',1,1,1,7.8041772731,2.5651090237,0.0,0.0,0.0,0.0,1
120,' P',1,1,1,1.6723237014,0.5496662194,0.0,0.0,0.0,0.0,1
121,' C',1,1,1,0.5574412338,0.1832220731,0.0,0.0,0.0,0.0,1
121,' I',1,1,1,2.6013924244,0.8550363412,0.0,0.0,0.0,0.0,1
121,' P',1,1,1,0.5574412338,0.1832220731,0.0,0.0,0.0,0.0,1
122,' C',1,1,1,0.5574412338,0.1832220731,0.0,0.0,0.0,0.0,1
122,' I',1,1,1,2.6013924244,0.8550363412,0.0,0.0,0.0,0.0,1
122,' P',1,1,1,0.5574412338,0.1832220731,0.0,0.0,0.0,0.0,1
123,' C',1,1,1,0.5574412338,0.1832220731,0.0,0.0,0.0,0.0,1
123,' I',1,1,1,2.6013924244,0.8550363412,0.0,0.0,0.0,0.0,1
123,' P',1,1,1,0.5574412338,0.1832220731,0.0,0.0,0.0,0.0,1
124,' C',1,1,1,1.6723237014,0.5496662194,0.0,0.0,0.0,0.0,1
124,' I',1,1,1,7.8041772731,2.5651090237,0.0,0.0,0.0,0.0,1
124,' P',1,1,1,1.6723237014,0.5496662194,0.0,0.0,0.0,0.0,1
125,' C',1,1,1,0.5574412338,0.1832220731,0.0,0.0,0.0,0.0,1
125,' I',1,1,1,2.6013924244,0.8550363412,0.0,0.0,0.0,0.0,1
125,' P',1,1,1,0.5574412338,0.1832220731,0.0,0.0,0.0,0.0,1
126,' C',1,1,1,0.5574412338,0.1832220731,0.0,0.0,0.0,0.0,1
126,' I',1,1,1,2.6013924244,0.8550363412,0.0,0.0,0.0,0.0,1
126,' P',1,1,1,0.5574412338,0.1832220731,0.0,0.0,0.0,0.0,1
127,' C',1,1,1,1.6723237014,0.5496662194,0.0,0.0,0.0,0.0,1
127,' I',1,1,1,7.8041772731,2.5651090237,0.0,0.0,0.0,0.0,1
127,' P',1,1,1,1.6723237014,0.5496662194,0.0,0.0,0.0,0.0,1
128,' C',1,1,1,1.6723237014,0.5496662194,0.0,0.0,0.0,0.0,1
128,' I',1,1,1,7.8041772731,2.5651090237,0.0,0.0,0.0,0.0,1
...
0 / END OF LOAD DATA, BEGIN GENERATOR DATA
30,' 1',931.75819379,4.42124962,1092.0,-1092.0,1.0851946025,0,100.0,0.0,0.0,0.0,0.0,1.0,1,100.0,1092.0,0.0,1,1.0,0,1.0,0,1.0,0,1.0
46,' 1',19.99918679,19.93602974,20.0,-20.0,1.0659874086,0,100.0,0.0,0.0,0.0,0.0,1.0,1,100.0,20.0,0.0,1,1.0,0,1.0,0,1.0,0,1.0
62,' 1',312.33594338,24.54613047,1358.0,-1358.0,1.0669807303,0,100.0,0.0,0.0,0.0,0.0,1.0,1,100.0,1358.0,0.0,1,1.0,0,1.0,0,1.0,0,1.0
63,' 1',5.00027605,4.99994081,11.0,-11.0,1.0506914655,0,100.0,0.0,0.0,0.0,0.0,1.0,1,100.0,11.0,0.0,1,1.0,0,1.0,0,1.0,0,1.0
64,' 1',11.00779305,11.04501288,5.0,-5.0,1.0668574752,0,100.0,0.0,0.0,0.0,0.0,1.0,1,100.0,5.0,0.0,1,1.0,0,1.0,0,1.0,0,1.0
65,' 1',8.99976354,8.99965611,193.0,-193.0,1.0506110036,0,100.0,0.0,0.0,0.0,0.0,1.0,1,100.0,193.0,0.0,1,1.0,0,1.0,0,1.0,0,1.0
66,' 1',453.97085499,32.79595366,640.0,-640.0,1.073377556,0,100.0,0.0,0.0,0.0,0.0,1.0,1,100.0,640.0,0.0,1,1.0,0,1.0,0,1.0,0,1.0
67,' 1',32.99895613,32.99595483,9.0,-9.0,1.0705271293,0,100.0,0.0,0.0,0.0,0.0,1.0,1,100.0,9.0,0.0,1,1.0,0,1.0,0,1.0,0,1.0
68,' 1',296.11034916,153.49718356,454.0,-454.0,1.0729513829,0,100.0,0.0,0.0,0.0,0.0,1.0,1,100.0,454.0,0.0,1,1.0,0,1.0,0,1.0,0,1.0
69,' 1',0.04118629,192.93519348,33.0,-33.0,1.072831131,0,100.0,0.0,0.0,0.0,0.0,1.0,1,100.0,33.0,0.0,1,1.0,0,1.0,0,1.0,0,1.0
70,' 1',599.9575671,61.9229493,600.0,-600.0,1.0734317134,0,100.0,0.0,0.0,0.0,0.0,1.0,1,100.0,600.0,0.0,1,1.0,0,1.0,0,1.0,0,1.0
71,' 1',17.99966007,17.99775575,18.0,-18.0,1.0688750832,0,100.0,0.0,0.0,0.0,0.0,1.0,1,100.0,18.0,0.0,1,1.0,0,1.0,0,1.0,0,1.0
0 / END OF GENERATOR DATA, BEGIN BRANCH DATA
1,4,' 1',0.0365020007,0.2217726598,0.0822860313,227.0,272.4,326.88,0.0,0.0,0.0,0.0,1,1.0,0,1.0,0,1.0,0,1.0,0,1.0
2,3,' 1',0.008299945,0.0504273971,0.0187104686,227.0,272.4,326.88,0.0,0.0,0.0,0.0,1,1.0,0,1.0,0,1.0,0,1.0,0,1.0
2,8,' 1',0.006942542,0.0421803179,0.0156504908,227.0,272.4,326.88,0.0,0.0,0.0,0.0,1,1.0,0,1.0,0,1.0,0,1.0,0,1.0
2,8,'1A',0.006942542,0.0421803179,0.0156504908,227.0,272.4,326.88,0.0,0.0,0.0,0.0,1,1.0,0,1.0,0,1.0,0,1.0,0,1.0
2,25,' 1',0.0055727969,0.0338582537,0.0125626907,227.0,272.4,326.88,0.0,0.0,0.0,0.0,1,1.0,0,1.0,0,1.0,0,1.0,0,1.0
2,40,' 1',0.0043206717,0.0262508037,0.0097400394,227.0,272.4,326.88,0.0,0.0,0.0,0.0,1,1.0,0,1.0,0,1.0,0,1.0,0,1.0
2,40,'1A',0.0044347775,0.0269440681,0.0099972667,227.0,272.4,326.88,0.0,0.0,0.0,0.0,1,1.0,0,1.0,0,1.0,0,1.0,0,1.0
2,40,'1B',0.0044347775,0.0269440681,0.0099972667,227.0,272.4,326.88,0.0,0.0,0.0,0.0,1,1.0,0,1.0,0,1.0,0,1.0,0,1.0
2,49,' 1',0.010046956,0.0610415899,0.0226487349,227.0,272.4,326.88,0.0,0.0,0.0,0.0,1,1.0,0,1.0,0,1.0,0,1.0,0,1.0
3,36,' 1',0.0085378732,0.051872961,0.0192468273,227.0,272.4,326.88,0.0,0.0,0.0,0.0,1,1.0,0,1.0,0,1.0,0,1.0,0,1.0
4,5,' 1',0.0129466388,0.0786589905,0.0291854558,227.0,272.4,326.88,0.0,0.0,0.0,0.0,1,1.0,0,1.0,0,1.0,0,1.0,0,1.0
4,15,' 1',0.0141663657,0.0860696002,0.0319350718,227.0,272.4,326.88,0.0,0.0,0.0,0.0,1,1.0,0,1.0,0,1.0,0,1.0,0,1.0
5,6,' 1',0.0090684113,0.0550963138,0.020442813,227.0,272.4,326.88,0.0,0.0,0.0,0.0,1,1.0,0,1.0,0,1.0,0,1.0,0,1.0
5,15,' 1',0.0115174447,0.0699757355,0.0259636403,227.0,272.4,326.88,0.0,0.0,0.0,0.0,1,1.0,0,1.0,0,1.0,0,1.0,0,1.0
6,7,' 1',0.0065126072,0.0395681932,0.0146812938,227.0,272.4,326.88,0.0,0.0,0.0,0.0,1,1.0,0,1.0,0,1.0,0,1.0,0,1.0
7,12,' 1',0.0158646859,0.0963879658,0.0357635751,227.0,272.4,326.88,0.0,0.0,0.0,0.0,1,1.0,0,1.0,0,1.0,0,1.0,0,1.0
8,28,' 1',0.0044711104,0.0271648135,0.0100791716,227.0,272.4,326.88,0.0,0.0,0.0,0.0,1,1.0,0,1.0,0,1.0,0,1.0,0,1.0
8,44,' 1',0.0227951693,0.13849502,0.0513868823,227.0,272.4,326.88,0.0,0.0,0.0,0.0,1,1.0,0,1.0,0,1.0,0,1.0,0,1.0
9,8,' 1',0.0086627764,0.0526318261,0.019528395,227.0,272.4,326.88,0.0,0.0,0.0,0.0,1,1.0,0,1.0,0,1.0,0,1.0,0,1.0
9,8,'1A',0.0086361048,0.0524697796,0.0194682696,227.0,272.4,326.88,0.0,0.0,0.0,0.0,1,1.0,0,1.0,0,1.0,0,1.0,0,1.0
9,21,' 1',0.0047635568,0.0289416096,0.0107384301,227.0,272.4,326.88,0.0,0.0,0.0,0.0,1,1.0,0,1.0,0,1.0,0,1.0,0,1.0
10,9,' 1',0.0181638859,0.1103570548,0.0409466346,227.0,272.4,326.88,0.0,0.0,0.0,0.0,1,1.0,0,1.0,0,1.0,0,1.0,0,1.0
10,37,' 1',0.0072655544,0.0441428219,0.0163786538,227.0,272.4,326.88,0.0,0.0,0.0,0.0,1,1.0,0,1.0,0,1.0,0,1.0,0,1.0
11,14,' 1',0.0080700812,0.0490308297,0.0181922893,227.0,272.4,326.88,0.0,0.0,0.0,0.0,1,1.0,0,1.0,0,1.0,0,1.0,0,1.0
11,14,'1A',0.0080479987,0.0488966643,0.0181425089,227.0,272.4,326.88,0.0,0.0,0.0,0.0,1,1.0,0,1.0,0,1.0,0,1.0,0,1.0
12,16,' 1',0.0083615177,0.0508014901,0.0188492712,227.0,272.4,326.88,0.0,0.0,0.0,0.0,1,1.0,0,1.0,0,1.0,0,1.0,0,1.0
13,16,' 1',0.0215172187,0.1307306649,0.0485060133,227.0,272.4,326.88,0.0,0.0,0.0,0.0,1,1.0,0,1.0,0,1.0,0,1.0,0,1.0
14,13,' 1',0.0145311087,0.0882856438,0.0327573077,227.0,272.4,326.88,0.0,0.0,0.0,0.0,1,1.0,0,1.0,0,1.0,0,1.0,0,1.0
14,30,' 1',0.0302570295,0.1838305238,0.0682080661,227.0,272.4,326.88,0.0,0.0,0.0,0.0,1,1.0,0,1.0,0,1.0,0,1.0,0,1.0
14,34,' 1',0.0479096152,0.2910811073,0.1080020826,227.0,272.4,326.88,0.0,0.0,0.0,0.0,1,1.0,0,1.0,0,1.0,0,1.0,0,1.0
15,45,' 1',0.0124908185,0.0758895949,0.0281579054,227.0,272.4,326.88,0.0,0.0,0.0,0.0,1,1.0,0,1.0,0,1.0,0,1.0,0,1.0
16,1,' 1',0.0239117357,0.1452788647,0.0539039448,227.0,272.4,326.88,0.0,0.0,0.0,0.0,1,1.0,0,1.0,0,1.0,0,1.0,0,1.0
16,19,' 1',0.0000396811,0.0002410877,0.0000894526,227.0,272.4,326.88,0.0,0.0,0.0,0.0,1,1.0,0,1.0,0,1.0,0,1.0,0,1.0
16,45,' 1',0.0080603624,0.0489717815,0.0181703802,227.0,272.4,326.88,0.0,0.0,0.0,0.0,1,1.0,0,1.0,0,1.0,0,1.0,0,1.0
16,46,' 1',0.0042345135,0.0257273385,0.0095458141,227.0,272.4,326.88,0.0,0.0,0.0,0.0,1,1.0,0,1.0,0,1.0,0,1.0,0,1.0
17,8,' 1',0.0075449988,0.0458406228,0.0170086021,227.0,272.4,326.88,0.0,0.0,0.0,0.0,1,1.0,0,1.0,0,1.0,0,1.0,0,1.0
18,17,' 1',0.0184992192,0.1123944158,0.0417025725,227.0,272.4,326.88,0.0,0.0,0.0,0.0,1,1.0,0,1.0,0,1.0,0,1.0,0,1.0
19,18,' 1',0.0138045533,0.0838713616,0.0311194423,227.0,272.4,326.88,0.0,0.0,0.0,0.0,1,1.0,0,1.0,0,1.0,0,1.0,0,1.0
20,8,' 1',0.0069659597,0.0423225956,0.0157032811,227.0,272.4,326.88,0.0,0.0,0.0,0.0,1,1.0,0,1.0,0,1.0,0,1.0,0,1.0
20,47,' 1',0.0092612019,0.0562676387,0.0208774187,227.0,272.4,326.88,0.0,0.0,0.0,0.0,1,1.0,0,1.0,0,1.0,0,1.0,0,1.0
21,8,' 1',0.0102123016,0.0620461688,0.0230214716,227.0,272.4,326.88,0.0,0.0,0.0,0.0,1,1.0,0,1.0,0,1.0,0,1.0,0,1.0
22,8,' 1',0.0052289057,0.0317688976,0.0117874607,227.0,272.4,326.88,0.0,0.0,0.0,0.0,1,1.0,0,1.0,0,1.0,0,1.0,0,1.0
22,26,' 1',0.0013123328,0.0079732488,0.0029583764,227.0,272.4,326.88,0.0,0.0,0.0,0.0,1,1.0,0,1.0,0,1.0,0,1.0,0,1.0
23,22,' 1',0.0014714331,0.0089398837,0.0033170345,227.0,272.4,326.88,0.0,0.0,0.0,0.0,1,1.0,0,1.0,0,1.0,0,1.0,0,1.0
24,32,' 1',0.0022347215,0.0135773414,0.0050377064,227.0,272.4,326.88,0.0,0.0,0.0,0.0,1,1.0,0,1.0,0,1.0,0,1.0,0,1.0
25,22,' 1',0.0019131759,0.0116237497,0.0043128501,227.0,272.4,326.88,0.0,0.0,0.0,0.0,1,1.0,0,1.0,0,1.0,0,1.0,0,1.0
25,26,' 1',0.0033731781,0.0204941827,0.0076041157,227.0,272.4,326.88,0.0,0.0,0.0,0.0,1,1.0,0,1.0,0,1.0,0,1.0,0,1.0
26,20,' 1',0.0074581979,0.0453132528,0.0168129279,227.0,272.4,326.88,0.0,0.0,0.0,0.0,1,1.0,0,1.0,0,1.0,0,1.0,0,1.0
27,44,' 1',0.0079287048,0.0481718787,0.0178735861,227.0,272.4,326.88,0.0,0.0,0.0,0.0,1,1.0,0,1.0,0,1.0,0,1.0,0,1.0
28,29,' 1',0.0238645517,0.144992192,0.0537975784,227.0,272.4,326.88,0.0,0.0,0.0,0.0,1,1.0,0,1.0,0,1.0,0,1.0,0,1.0
29,27,' 1',0.0095251464,0.0578712679,0.0214724257,227.0,272.4,326.88,0.0,0.0,0.0,0.0,1,1.0,0,1.0,0,1.0,0,1.0,0,1.0
30,10,' 1',0.010225787,0.0621281011,0.0230518716,227.0,272.4,326.88,0.0,0.0,0.0,0.0,1,1.0,0,1.0,0,1.0,0,1.0,0,1.0
30,31,' 1',0.0241998849,0.147029553,0.0545535163,227.0,272.4,326.88,0.0,0.0,0.0,0.0,1,1.0,0,1.0,0,1.0,0,1.0,0,1.0
30,382,' 1',0.0001,0.001,0.0,999.99,1199.988,1439.9856,0.0,0.0,0.0,0.0,1,1.0,0,1.0,0,1.0,0,1.0,0,1.0
31,48,' 1',0.0043034437,0.026146133,0.0097012027,227.0,272.4,326.88,0.0,0.0,0.0,0.0,1,1.0,0,1.0,0,1.0,0,1.0,0,1.0
32,33,' 1',0.0023473329,0.0142615271,0.0052915651,227.0,272.4,326.88,0.0,0.0,0.0,0.0,1,1.0,0,1.0,0,1.0,0,1.0,0,1.0
32,48,' 1',0.0042801965,0.0260048911,0.0096487966,227.0,272.4,326.88,0.0,0.0,0.0,0.0,1,1.0,0,1.0,0,1.0,0,1.0,0,1.0
33,44,' 1',0.008830443,0.0536505066,0.0199063639,227.0,272.4,326.88,0.0,0.0,0.0,0.0,1,1.0,0,1.0,0,1.0,0,1.0,0,1.0
35,12,' 1',0.0168058492,0.1021061257,0.0378852284,227.0,272.4,326.88,0.0,0.0,0.0,0.0,1,1.0,0,1.0,0,1.0,0,1.0,0,1.0
36,35,' 1',0.0044188555,0.026847332,0.009961374,227.0,272.4,326.88,0.0,0.0,0.0,0.0,1,1.0,0,1.0,0,1.0,0,1.0,0,1.0
37,38,' 1',0.0062595545,0.0380307389,0.0141108402,227.0,272.4,326.88,0.0,0.0,0.0,0.0,1,1.0,0,1.0,0,1.0,0,1.0,0,1.0
37,38,'1A',0.0079376186,0.0482260355,0.0178936803,227.0,272.4,326.88,0.0,0.0,0.0,0.0,1,1.0,0,1.0,0,1.0,0,1.0,0,1.0
37,43,' 1',0.0022514047,0.0136787026,0.0050753152,227.0,272.4,326.88,0.0,0.0,0.0,0.0,1,1.0,0,1.0,0,1.0,0,1.0,0,1.0
37,50,' 1',0.0027329662,0.0166044922,0.0061608936,227.0,272.4,326.88,0.0,0.0,0.0,0.0,1,1.0,0,1.0,0,1.0,0,1.0,0,1.0
38,21,' 1',0.011700818,0.0710898438,0.0263770165,227.0,272.4,326.88,0.0,0.0,0.0,0.0,1,1.0,0,1.0,0,1.0,0,1.0,0,1.0
39,9,' 1',0.0267148845,0.1623097606,0.0602230503,227.0,272.4,326.88,0.0,0.0,0.0,0.0,1,1.0,0,1.0,0,1.0,0,1.0,0,1.0
40,25,' 1',0.0039980459,0.0242906484,0.0090127478,227.0,272.4,326.88,0.0,0.0,0.0,0.0,1,1.0,0,1.0,0,1.0,0,1.0,0,1.0
41,42,' 1',0.0073566191,0.0446960974,0.01658394,227.0,272.4,326.88,0.0,0.0,0.0,0.0,1,1.0,0,1.0,0,1.0,0,1.0,0,1.0
41,49,' 1',0.0009049032,0.0054978572,0.0020399126,227.0,272.4,326.88,0.0,0.0,0.0,0.0,1,1.0,0,1.0,0,1.0,0,1.0,0,1.0
42,38,' 1',0.0036470445,0.0221580938,0.0082214895,227.0,272.4,326.88,0.0,0.0,0.0,0.0,1,1.0,0,1.0,0,1.0,0,1.0,0,1.0
43,10,' 1',0.0039904743,0.0242446463,0.0089956793,227.0,272.4,326.88,0.0,0.0,0.0,0.0,1,1.0,0,1.0,0,1.0,0,1.0,0,1.0
43,50,' 1',0.0001986914,0.0012071754,0.0004479077,227.0,272.4,326.88,0.0,0.0,0.0,0.0,1,1.0,0,1.0,0,1.0,0,1.0,0,1.0
51,52,' 1',0.0051127007,0.0397256847,0.2037708609,454.0,544.8,653.76,0.0,0.0,0.0,0.0,1,1.0,0,1.0,0,1.0,0,1.0,0,1.0
51,53,' 1',0.0038199758,0.0296812119,0.1522482533,454.0,544.8,653.76,0.0,0.0,0.0,0.0,1,1.0,0,1.0,0,1.0,0,1.0,0,1.0
52,57,' 1',0.0078967222,0.0613575312,0.3147303078,454.0,544.8,653.76,0.0,0.0,0.0,0.0,1,1.0,0,1.0,0,1.0,0,1.0,0,1.0
52,57,'1A',0.0078967222,0.0613575312,0.3147303078,454.0,544.8,653.76,0.0,0.0,0.0,0.0,1,1.0,0,1.0,0,1.0,0,1.0,0,1.0
54,51,' 1',0.0023613732,0.0183478694,0.0941144548,454.0,544.8,653.76,0.0,0.0,0.0,0.0,1,1.0,0,1.0,0,1.0,0,1.0,0,1.0
55,53,' 1',0.0050489502,0.0392303434,0.2012300331,454.0,544.8,653.76,0.0,0.0,0.0,0.0,1,1.0,0,1.0,0,1.0,0,1.0,0,1.0
57,58,' 1',0.0071648308,0.0556707349,0.285560178,454.0,544.8,653.76,0.0,0.0,0.0,0.0,1,1.0,0,1.0,0,1.0,0,1.0,0,1.0
57,59,' 1',0.0079566818,0.0618234178,0.3171200492,454.0,544.8,653.76,0.0,0.0,0.0,0.0,1,1.0,0,1.0,0,1.0,0,1.0,0,1.0
58,54,' 1',0.0060254918,0.0468180715,0.2401508952,454.0,544.8,653.76,0.0,0.0,0.0,0.0,1,1.0,0,1.0,0,1.0,0,1.0,0,1.0
61,51,' 1',0.0030417949,0.0236347466,0.1212332196,454.0,544.8,653.76,0.0,0.0,0.0,0.0,1,1.0,0,1.0,0,1.0,0,1.0,0,1.0
61,53,' 1',0.0068725267,0.0533995327,0.2739101629,454.0,544.8,653.76,0.0,0.0,0.0,0.0,1,1.0,0,1.0,0,1.0,0,1.0,0,1.0
61,60,' 1',0.00419075,0.0325621275,0.1670257618,454.0,544.8,653.76,0.0,0.0,0.0,0.0,1,1.0,0,1.0,0,1.0,0,1.0,0,1.0
62,383,' 1',0.0001,0.001,0.0,999.99,1199.988,1439.9856,0.0,0.0,0.0,0.0,1,1.0,0,1.0,0,1.0,0,1.0,0,1.0
64,62,' 1',0.0001,0.001,0.0,47.77,57.324,68.7888,0.0,0.0,0.0,0.0,1,1.0,0,1.0,0,1.0,0,1.0,0,1.0
65,94,' 1',0.0001,0.001,0.0,47.77,57.324,68.7888,0.0,0.0,0.0,0.0,1,1.0,0,1.0,0,1.0,0,1.0,0,1.0
65,148,' 1',0.0001,0.001,0.0,47.77,57.324,68.7888,0.0,0.0,0.0,0.0,1,1.0,0,1.0,0,1.0,0,1.0,0,1.0
65,155,' 1',0.0001,0.001,0.0,47.77,57.324,68.7888,0.0,0.0,0.0,0.0,1,1.0,0,1.0,0,1.0,0,1.0,0,1.0
65,157,' 1',0.0001,0.001,0.0,47.77,57.324,68.7888,0.0,0.0,0.0,0.0,1,1.0,0,1.0,0,1.0,0,1.0,0,1.0
65,159,' 1',0.0001,0.001,0.0,47.77,57.324,68.7888,0.0,0.0,0.0,0.0,1,1.0,0,1.0,0,1.0,0,1.0,0,1.0
65,160,' 1',0.0001,0.001,0.0,47.77,57.324,68.7888,0.0,0.0,0.0,0.0,1,1.0,0,1.0,0,1.0,0,1.0,0,1.0
65,161,' 1',0.0001,0.001,0.0,47.77,57.324,68.7888,0.0,0.0,0.0,0.0,1,1.0,0,1.0,0,1.0,0,1.0,0,1.0
65,178,' 1',0.0001,0.001,0.0,47.77,57.324,68.7888,0.0,0.0,0.0,0.0,1,1.0,0,1.0,0,1.0,0,1.0,0,1.0
65,212,' 1',0.0001,0.001,0.0,47.77,57.324,68.7888,0.0,0.0,0.0,0.0,1,1.0,0,1.0,0,1.0,0,1.0,0,1.0
66,131,' 1',0.0059238979,0.0085700364,0.0,47.77,57.324,68.7888,0.0,0.0,0.0,0.0,1,1.0,0,1.0,0,1.0,0,1.0,0,1.0
66,135,' 1',0.0001,0.001,0.0,47.77,57.324,68.7888,0.0,0.0,0.0,0.0,1,1.0,0,1.0,0,1.0,0,1.0,0,1.0
66,137,' 1',0.0001,0.001,0.0,47.77,57.324,68.7888,0.0,0.0,0.0,0.0,1,1.0,0,1.0,0,1.0,0,1.0,0,1.0
66,146,' 1',0.0001,0.001,0.0,47.77,57.324,68.7888,0.0,0.0,0.0,0.0,1,1.0,0,1.0,0,1.0,0,1.0,0,1.0
66,147,' 1',0.0001,0.001,0.0,47.77,57.324,68.7888,0.0,0.0,0.0,0.0,1,1.0,0,1.0,0,1.0,0,1.0,0,1.0
66,150,' 1',0.0001,0.001,0.0,47.77,57.324,68.7888,0.0,0.0,0.0,0.0,1,1.0,0,1.0,0,1.0,0,1.0,0,1.0
66,162,' 1',0.0001,0.001,0.0,47.77,57.324,68.7888,0.0,0.0,0.0,0.0,1,1.0,0,1.0,0,1.0,0,1.0,0,1.0
66,385,' 1',0.0001,0.001,0.0,999.99,1199.988,1439.9856,0.0,0.0,0.0,0.0,1,1.0,0,1.0,0,1.0,0,1.0,0,1.0
67,96,' 1',0.0001,0.001,0.0,47.77,57.324,68.7888,0.0,0.0,0.0,0.0,1,1.0,0,1.0,0,1.0,0,1.0,0,1.0
67,124,' 1',0.0001,0.001,0.0,47.77,57.324,68.7888,0.0,0.0,0.0,0.0,1,1.0,0,1.0,0,1.0,0,1.0,0,1.0
67,197,' 1',0.0001,0.001,0.0,47.77,57.324,68.7888,0.0,0.0,0.0,0.0,1,1.0,0,1.0,0,1.0,0,1.0,0,1.0
67,209,' 1',0.0001,0.001,0.0,47.77,57.324,68.7888,0.0,0.0,0.0,0.0,1,1.0,0,1.0,0,1.0,0,1.0,0,1.0
67,262,' 1',0.0001,0.001,0.0,47.77,57.324,68.7888,0.0,0.0,0.0,0.0,1,1.0,0,1.0,0,1.0,0,1.0,0,1.0
67,264,' 1',0.0001,0.001,0.0,47.77,57.324,68.7888,0.0,0.0,0.0,0.0,1,1.0,0,1.0,0,1.0,0,1.0,0,1.0
68,99,' 1',0.0001,0.001,0.0,47.77,57.324,68.7888,0.0,0.0,0.0,0.0,1,1.0,0,1.0,0,1.0,0,1.0,0,1.0
68,235,' 1',0.0001,0.001,0.0,47.77,57.324,68.7888,0.0,0.0,0.0,0.0,1,1.0,0,1.0,0,1.0,0,1.0,0,1.0
68,237,' 1',0.0001,0.001,0.0,47.77,57.324,68.7888,0.0,0.0,0.0,0.0,1,1.0,0,1.0,0,1.0,0,1.0,0,1.0
68,289,' 1',0.0001,0.001,0.0,47.77,57.324,68.7888,0.0,0.0,0.0,0.0,1,1.0,0,1.0,0,1.0,0,1.0,0,1.0
68,384,' 1',0.0001,0.001,0.0,999.99,1199.988,1439.9856,0.0,0.0,0.0,0.0,1,1.0,0,1.0,0,1.0,0,1.0,0,1.0
69,167,' 1',0.0001,0.001,0.0,47.77,57.324,68.7888,0.0,0.0,0.0,0.0,1,1.0,0,1.0,0,1.0,0,1.0,0,1.0
69,204,' 1',0.0001,0.001,0.0,47.77,57.324,68.7888,0.0,0.0,0.0,0.0,1,1.0,0,1.0,0,1.0,0,1.0,0,1.0
69,213,' 1',0.0001,0.001,0.0,47.77,57.324,68.7888,0.0,0.0,0.0,0.0,1,1.0,0,1.0,0,1.0,0,1.0,0,1.0
69,226,' 1',0.0001,0.001,0.0,47.77,57.324,68.7888,0.0,0.0,0.0,0.0,1,1.0,0,1.0,0,1.0,0,1.0,0,1.0
69,278,' 1',0.0001,0.001,0.0,47.77,57.324,68.7888,0.0,0.0,0.0,0.0,1,1.0,0,1.0,0,1.0,0,1.0,0,1.0
70,90,' 1',0.0001,0.001,0.0,47.77,57.324,68.7888,0.0,0.0,0.0,0.0,1,1.0,0,1.0,0,1.0,0,1.0,0,1.0
70,132,' 1',0.0001,0.001,0.0,47.77,57.324,68.7888,0.0,0.0,0.0,0.0,1,1.0,0,1.0,0,1.0,0,1.0,0,1.0
70,154,' 1',0.0001,0.001,0.0,47.77,57.324,68.7888,0.0,0.0,0.0,0.0,1,1.0,0,1.0,0,1.0,0,1.0,0,1.0
73,79,' 1',0.0001,0.001,0.0,47.77,57.324,68.7888,0.0,0.0,0.0,0.0,1,1.0,0,1.0,0,1.0,0,1.0,0,1.0
73,105,' 1',0.0001,0.001,0.0,47.77,57.324,68.7888,0.0,0.0,0.0,0.0,1,1.0,0,1.0,0,1.0,0,1.0,0,1.0
74,107,' 1',0.0001,0.001,0.0,47.77,57.324,68.7888,0.0,0.0,0.0,0.0,1,1.0,0,1.0,0,1.0,0,1.0,0,1.0
74,108,' 1',0.0001,0.001,0.0,47.77,57.324,68.7888,0.0,0.0,0.0,0.0,1,1.0,0,1.0,0,1.0,0,1.0,0,1.0
74,130,' 1',0.0001,0.001,0.0,47.77,57.324,68.7888,0.0,0.0,0.0,0.0,1,1.0,0,1.0,0,1.0,0,1.0,0,1.0
75,121,' 1',0.0001,0.001,0.0,47.77,57.324,68.7888,0.0,0.0,0.0,0.0,1,1.0,0,1.0,0,1.0,0,1.0,0,1.0
75,122,' 1',0.0001,0.001,0.0,47.77,57.324,68.7888,0.0,0.0,0.0,0.0,1,1.0,0,1.0,0,1.0,0,1.0,0,1.0
75,123,' 1',0.0001,0.001,0.0,47.77,57.324,68.7888,0.0,0.0,0.0,0.0,1,1.0,0,1.0,0,1.0,0,1.0,0,1.0
75,124,' 1',0.0001,0.001,0.0,47.77,57.324,68.7888,0.0,0.0,0.0,0.0,1,1.0,0,1.0,0,1.0,0,1.0,0,1.0
75,271,' 1',0.0001,0.001,0.0,47.77,57.324,68.7888,0.0,0.0,0.0,0.0,1,1.0,0,1.0,0,1.0,0,1.0,0,1.0
76,170,' 1',0.0001,0.001,0.0,47.77,57.324,68.7888,0.0,0.0,0.0,0.0,1,1.0,0,1.0,0,1.0,0,1.0,0,1.0
77,125,' 1',0.0001,0.001,0.0,47.77,57.324,68.7888,0.0,0.0,0.0,0.0,1,1.0,0,1.0,0,1.0,0,1.0,0,1.0
79,105,' 1',0.0001,0.001,0.0,47.77,57.324,68.7888,0.0,0.0,0.0,0.0,1,1.0,0,1.0,0,1.0,0,1.0,0,1.0
80,136,' 1',0.0001,0.001,0.0,47.77,57.324,68.7888,0.0,0.0,0.0,0.0,1,1.0,0,1.0,0,1.0,0,1.0,0,1.0
81,190,' 1',0.0001,0.001,0.0,47.77,57.324,68.7888,0.0,0.0,0.0,0.0,1,1.0,0,1.0,0,1.0,0,1.0,0,1.0
82,198,' 1',0.0001,0.001,0.0,47.77,57.324,68.7888,0.0,0.0,0.0,0.0,1,1.0,0,1.0,0,1.0,0,1.0,0,1.0
86,177,' 1',0.0001,0.001,0.0,47.77,57.324,68.7888,0.0,0.0,0.0,0.0,1,1.0,0,1.0,0,1.0,0,1.0,0,1.0
86,219,' 1',0.0001,0.001,0.0,47.77,57.324,68.7888,0.0,0.0,0.0,0.0,1,1.0,0,1.0,0,1.0,0,1.0,0,1.0
86,220,' 1',0.0001,0.001,0.0,47.77,57.324,68.7888,0.0,0.0,0.0,0.0,1,1.0,0,1.0,0,1.0,0,1.0,0,1.0
86,239,' 1',0.0001,0.001,0.0,47.77,57.324,68.7888,0.0,0.0,0.0,0.0,1,1.0,0,1.0,0,1.0,0,1.0,0,1.0
86,240,' 1',0.0001,0.001,0.0,47.77,57.324,68.7888,0.0,0.0,0.0,0.0,1,1.0,0,1.0,0,1.0,0,1.0,0,1.0
86,241,' 1',0.0001,0.001,0.0,47.77,57.324,68.7888,0.0,0.0,0.0,0.0,1,1.0,0,1.0,0,1.0,0,1.0,0,1.0
88,62,' 1',0.0107831427,0.0160364536,0.0,47.77,57.324,68.7888,0.0,0.0,0.0,0.0,1,1.0,0,1.0,0,1.0,0,1.0,0,1.0
88,64,' 1',0.0001,0.001,0.0,47.77,57.324,68.7888,0.0,0.0,0.0,0.0,1,1.0,0,1.0,0,1.0,0,1.0,0,1.0
88,325,' 1',0.0001,0.001,0.0,47.77,57.324,68.7888,0.0,0.0,0.0,0.0,1,1.0,0,1.0,0,1.0,0,1.0,0,1.0
90,132,' 1',0.0001,0.001,0.0,47.77,57.324,68.7888,0.0,0.0,0.0,0.0,1,1.0,0,1.0,0,1.0,0,1.0,0,1.0
90,134,' 1',0.0001,0.001,0.0,47.77,57.324,68.7888,0.0,0.0,0.0,0.0,1,1.0,0,1.0,0,1.0,0,1.0,0,1.0
91,100,' 1',0.0001,0.001,0.0,47.77,57.324,68.7888,0.0,0.0,0.0,0.0,1,1.0,0,1.0,0,1.0,0,1.0,0,1.0
92,130,' 1',0.0001,0.001,0.0,47.77,57.324,68.7888,0.0,0.0,0.0,0.0,1,1.0,0,1.0,0,1.0,0,1.0,0,1.0
92,166,' 1',0.0001,0.001,0.0,47.77,57.324,68.7888,0.0,0.0,0.0,0.0,1,1.0,0,1.0,0,1.0,0,1.0,0,1.0
92,252,' 1',0.0001,0.001,0.0,47.77,57.324,68.7888,0.0,0.0,0.0,0.0,1,1.0,0,1.0,0,1.0,0,1.0,0,1.0
92,272,' 1',0.0001,0.001,0.0,47.77,57.324,68.7888,0.0,0.0,0.0,0.0,1,1.0,0,1.0,0,1.0,0,1.0,0,1.0
93,136,' 1',0.0001,0.001,0.0,47.77,57.324,68.7888,0.0,0.0,0.0,0.0,1,1.0,0,1.0,0,1.0,0,1.0,0,1.0
93,140,' 1',0.0001,0.001,0.0,47.77,57.324,68.7888,0.0,0.0,0.0,0.0,1,1.0,0,1.0,0,1.0,0,1.0,0,1.0
94,153,' 1',0.0001,0.001,0.0,47.77,57.324,68.7888,0.0,0.0,0.0,0.0,1,1.0,0,1.0,0,1.0,0,1.0,0,1.0
94,155,' 1',0.0001,0.001,0.0,47.77,57.324,68.7888,0.0,0.0,0.0,0.0,1,1.0,0,1.0,0,1.0,0,1.0,0,1.0
94,156,' 1',0.0001,0.001,0.0,47.77,57.324,68.7888,0.0,0.0,0.0,0.0,1,1.0,0,1.0,0,1.0,0,1.0,0,1.0
94,161,' 1',0.0001,0.001,0.0,47.77,57.324,68.7888,0.0,0.0,0.0,0.0,1,1.0,0,1.0,0,1.0,0,1.0,0,1.0
95,215,' 1',0.060263857,0.0915399865,0.0,47.77,57.324,68.7888,0.0,0.0,0.0,0.0,1,1.0,0,1.0,0,1.0,0,1.0,0,1.0
97,216,' 1',0.0001,0.001,0.0,47.77,57.324,68.7888,0.0,0.0,0.0,0.0,1,1.0,0,1.0,0,1.0,0,1.0,0,1.0
98,125,' 1',0.0001,0.001,0.0,47.77,57.324,68.7888,0.0,0.0,0.0,0.0,1,1.0,0,1.0,0,1.0,0,1.0,0,1.0
98,226,' 1',0.0001,0.001,0.0,47.77,57.324,68.7888,0.0,0.0,0.0,0.0,1,1.0,0,1.0,0,1.0,0,1.0,0,1.0
100,242,' 1',0.0001,0.001,0.0,47.77,57.324,68.7888,0.0,0.0,0.0,0.0,1,1.0,0,1.0,0,1.0,0,1.0,0,1.0
102,306,' 1',0.0001,0.001,0.0,47.77,57.324,68.7888,0.0,0.0,0.0,0.0,1,1.0,0,1.0,0,1.0,0,1.0,0,1.0
103,173,' 1',0.0001,0.001,0.0,47.77,57.324,68.7888,0.0,0.0,0.0,0.0,1,1.0,0,1.0,0,1.0,0,1.0,0,1.0
104,289,' 1',0.0001,0.001,0.0,47.77,57.324,68.7888,0.0,0.0,0.0,0.0,1,1.0,0,1.0,0,1.0,0,1.0,0,1.0
104,292,' 1',0.0001,0.001,0.0,47.77,57.324,68.7888,0.0,0.0,0.0,0.0,1,1.0,0,1.0,0,1.0,0,1.0,0,1.0
104,293,' 1',0.0001,0.001,0.0,47.77,57.324,68.7888,0.0,0.0,0.0,0.0,1,1.0,0,1.0,0,1.0,0,1.0,0,1.0
104,318,' 1',0.0001,0.001,0.0,47.77,57.324,68.7888,0.0,0.0,0.0,0.0,1,1.0,0,1.0,0,1.0,0,1.0,0,1.0
108,107,' 1',0.0001,0.001,0.0,47.77,57.324,68.7888,0.0,0.0,0.0,0.0,1,1.0,0,1.0,0,1.0,0,1.0,0,1.0
110,109,' 1',0.0001,0.001,0.0,47.77,57.324,68.7888,0.0,0.0,0.0,0.0,1,1.0,0,1.0,0,1.0,0,1.0,0,1.0
113,111,' 1',0.0001,0.001,0.0,47.77,57.324,68.7888,0.0,0.0,0.0,0.0,1,1.0,0,1.0,0,1.0,0,1.0,0,1.0
114,111,' 1',0.0001,0.001,0.0,47.77,57.324,68.7888,0.0,0.0,0.0,0.0,1,1.0,0,1.0,0,1.0,0,1.0,0,1.0
114,113,' 1',0.0001,0.001,0.0,47.77,57.324,68.7888,0.0,0.0,0.0,0.0,1,1.0,0,1.0,0,1.0,0,1.0,0,1.0
115,111,' 1',0.0001,0.001,0.0,47.77,57.324,68.7888,0.0,0.0,0.0,0.0,1,1.0,0,1.0,0,1.0,0,1.0,0,1.0
115,113,' 1',0.0001,0.001,0.0,47.77,57.324,68.7888,0.0,0.0,0.0,0.0,1,1.0,0,1.0,0,1.0,0,1.0,0,1.0
115,114,' 1',0.0760406734,0.1150645397,0.0,47.77,57.324,68.7888,0.0,0.0,0.0,0.0,1,1.0,0,1.0,0,1.0,0,1.0,0,1.0
116,111,' 1',0.0001,0.001,0.0,47.77,57.324,68.7888,0.0,0.0,0.0,0.0,1,1.0,0,1.0,0,1.0,0,1.0,0,1.0
116,113,' 1',0.0001,0.001,0.0,47.77,57.324,68.7888,0.0,0.0,0.0,0.0,1,1.0,0,1.0,0,1.0,0,1.0,0,1.0
116,114,' 1',0.0001,0.001,0.0,47.77,57.324,68.7888,0.0,0.0,0.0,0.0,1,1.0,0,1.0,0,1.0,0,1.0,0,1.0
116,115,' 1',0.0001,0.001,0.0,47.77,57.324,68.7888,0.0,0.0,0.0,0.0,1,1.0,0,1.0,0,1.0,0,1.0,0,1.0
117,111,' 1',0.0001,0.001,0.0,47.77,57.324,68.7888,0.0,0.0,0.0,0.0,1,1.0,0,1.0,0,1.0,0,1.0,0,1.0
117,113,' 1',0.0001,0.001,0.0,47.77,57.324,68.7888,0.0,0.0,0.0,0.0,1,1.0,0,1.0,0,1.0,0,1.0,0,1.0
117,114,' 1',0.0001,0.001,0.0,47.77,57.324,68.7888,0.0,0.0,0.0,0.0,1,1.0,0,1.0,0,1.0,0,1.0,0,1.0
117,115,' 1',0.0001,0.001,0.0,47.77,57.324,68.7888,0.0,0.0,0.0,0.0,1,1.0,0,1.0,0,1.0,0,1.0,0,1.0
117,116,' 1',0.0001,0.001,0.0,47.77,57.324,68.7888,0.0,0.0,0.0,0.0,1,1.0,0,1.0,0,1.0,0,1.0,0,1.0
118,109,' 1',0.0001,0.001,0.0,47.77,57.324,68.7888,0.0,0.0,0.0,0.0,1,1.0,0,1.0,0,1.0,0,1.0,0,1.0
118,110,' 1',0.0001,0.001,0.0,47.77,57.324,68.7888,0.0,0.0,0.0,0.0,1,1.0,0,1.0,0,1.0,0,1.0,0,1.0
120,119,' 1',0.0001,0.001,0.0,47.77,57.324,68.7888,0.0,0.0,0.0,0.0,1,1.0,0,1.0,0,1.0,0,1.0,0,1.0
122,121,' 1',0.0001,0.001,0.0,47.77,57.324,68.7888,0.0,0.0,0.0,0.0,1,1.0,0,1.0,0,1.0,0,1.0,0,1.0
124,121,' 1',0.0001,0.001,0.0,47.77,57.324,68.7888,0.0,0.0,0.0,0.0,1,1.0,0,1.0,0,1.0,0,1.0,0,1.0
124,122,' 1',0.0001,0.001,0.0,47.77,57.324,68.7888,0.0,0.0,0.0,0.0,1,1.0,0,1.0,0,1.0,0,1.0,0,1.0
124,123,' 1',0.0001,0.001,0.0,47.77,57.324,68.7888,0.0,0.0,0.0,0.0,1,1.0,0,1.0,0,1.0,0,1.0,0,1.0
127,126,' 1',0.0001,0.001,0.0,47.77,57.324,68.7888,0.0,0.0,0.0,0.0,1,1.0,0,1.0,0,1.0,0,1.0,0,1.0
130,106,' 1',0.0001,0.001,0.0,47.77,57.324,68.7888,0.0,0.0,0.0,0.0,1,1.0,0,1.0,0,1.0,0,1.0,0,1.0
130,107,' 1',0.0001,0.001,0.0,47.77,57.324,68.7888,0.0,0.0,0.0,0.0,1,1.0,0,1.0,0,1.0,0,1.0,0,1.0
130,108,' 1',0.0001,0.001,0.0,47.77,57.324,68.7888,0.0,0.0,0.0,0.0,1,1.0,0,1.0,0,1.0,0,1.0,0,1.0
134,132,' 1',0.0001,0.001,0.0,47.77,57.324,68.7888,0.0,0.0,0.0,0.0,1,1.0,0,1.0,0,1.0,0,1.0,0,1.0
...
0 / END OF BRANCH DATA, BEGIN TRANSFORMER DATA
1,62,0,' 1',1,1,1,0.0,0.0,2,'            ',1,0,1.0,0,1.0,0,1.0,0,1.0
0.0061,0.04956,100.0,
1.0,0.0,0.0,350.0,420.0,504.0,0,1,1.5,0.5,1.5,1.5,33,0,0.0,0.0
1.0,0.0
2,75,0,' 1',1,1,1,0.0,0.0,2,'            ',1,0,1.0,0,1.0,0,1.0,0,1.0
0.0061,0.04956,100.0,
1.0,0.0,0.0,350.0,420.0,504.0,0,1,1.5,0.5,1.5,1.5,33,0,0.0,0.0
1.0,0.0
3,99,0,' 1',1,1,1,0.0,0.0,2,'            ',1,0,1.0,0,1.0,0,1.0,0,1.0
0.0061,0.04956,100.0,
1.0,0.0,0.0,350.0,420.0,504.0,0,1,1.5,0.5,1.5,1.5,33,0,0.0,0.0
1.0,0.0
5,92,0,' 1',1,1,1,0.0,0.0,2,'            ',1,0,1.0,0,1.0,0,1.0,0,1.0
0.0061,0.04956,100.0,
1.0,0.0,0.0,350.0,420.0,504.0,0,1,1.5,0.5,1.5,1.5,33,0,0.0,0.0
1.0,0.0
6,98,0,' 1',1,1,1,0.0,0.0,2,'            ',1,0,1.0,0,1.0,0,1.0,0,1.0
0.0061,0.04956,100.0,
1.0,0.0,0.0,350.0,420.0,504.0,0,1,1.5,0.5,1.5,1.5,33,0,0.0,0.0
1.0,0.0
7,97,0,' 1',1,1,1,0.0,0.0,2,'            ',1,0,1.0,0,1.0,0,1.0,0,1.0
0.0061,0.04956,100.0,
1.0,0.0,0.0,350.0,420.0,504.0,0,1,1.5,0.5,1.5,1.5,33,0,0.0,0.0
1.0,0.0
8,85,0,' 1',1,1,1,0.0,0.0,2,'            ',1,0,1.0,0,1.0,0,1.0,0,1.0
0.0061,0.04956,100.0,
1.0,0.0,0.0,350.0,420.0,504.0,0,1,1.5,0.5,1.5,1.5,33,0,0.0,0.0
1.0,0.0
9,72,0,' 1',1,1,1,0.0,0.0,2,'            ',1,0,1.0,0,1.0,0,1.0,0,1.0
0.0061,0.04956,100.0,
1.0,0.0,0.0,350.0,420.0,504.0,0,1,1.5,0.5,1.5,1.5,33,0,0.0,0.0
1.0,0.0
11,81,0,' 1',1,1,1,0.0,0.0,2,'            ',1,0,1.0,0,1.0,0,1.0,0,1.0
0.0061,0.04956,100.0,
1.0,0.0,0.0,350.0,420.0,504.0,0,1,1.5,0.5,1.5,1.5,33,0,0.0,0.0
1.0,0.0
12,74,0,' 1',1,1,1,0.0,0.0,2,'            ',1,0,1.0,0,1.0,0,1.0,0,1.0
0.0061,0.04956,100.0,
1.0,0.0,0.0,350.0,420.0,504.0,0,1,1.5,0.5,1.5,1.5,33,0,0.0,0.0
1.0,0.0
13,95,0,' 1',1,1,1,0.0,0.0,2,'            ',1,0,1.0,0,1.0,0,1.0,0,1.0
0.0061,0.04956,100.0,
1.0,0.0,0.0,350.0,420.0,504.0,0,1,1.5,0.5,1.5,1.5,33,0,0.0,0.0
1.0,0.0
15,100,0,' 1',1,1,1,0.0,0.0,2,'            ',1,0,1.0,0,1.0,0,1.0,0,1.0
0.0061,0.04956,100.0,
1.0,0.0,0.0,350.0,420.0,504.0,0,1,1.5,0.5,1.5,1.5,33,0,0.0,0.0
1.0,0.0
16,80,0,' 1',1,1,1,0.0,0.0,2,'            ',1,0,1.0,0,1.0,0,1.0,0,1.0
0.0061,0.04956,100.0,
1.0,0.0,0.0,350.0,420.0,504.0,0,1,1.5,0.5,1.5,1.5,33,0,0.0,0.0
1.0,0.0
17,102,0,' 1',1,1,1,0.0,0.0,2,'            ',1,0,1.0,0,1.0,0,1.0,0,1.0
0.0061,0.04956,100.0,
1.0,0.0,0.0,350.0,420.0,504.0,0,1,1.5,0.5,1.5,1.5,33,0,0.0,0.0
1.0,0.0
19,80,0,' 1',1,1,1,0.0,0.0,2,'            ',1,0,1.0,0,1.0,0,1.0,0,1.0
0.0061,0.04956,100.0,
1.0,0.0,0.0,350.0,420.0,504.0,0,1,1.5,0.5,1.5,1.5,33,0,0.0,0.0
1.0,0.0
20,90,0,' 1',1,1,1,0.0,0.0,2,'            ',1,0,1.0,0,1.0,0,1.0,0,1.0
0.0061,0.04956,100.0,
1.0,0.0,0.0,350.0,420.0,504.0,0,1,1.5,0.5,1.5,1.5,33,0,0.0,0.0
1.0,0.0
21,64,0,' 1',1,1,1,0.0,0.0,2,'            ',1,0,1.0,0,1.0,0,1.0,0,1.0
0.0061,0.04956,100.0,
1.0,0.0,0.0,350.0,420.0,504.0,0,1,1.5,0.5,1.5,1.5,33,0,0.0,0.0
1.0,0.0
22,91,0,' 1',1,1,1,0.0,0.0,2,'            ',1,0,1.0,0,1.0,0,1.0,0,1.0
0.0061,0.04956,100.0,
1.0,0.0,0.0,350.0,420.0,504.0,0,1,1.5,0.5,1.5,1.5,33,0,0.0,0.0
1.0,0.0
24,96,0,' 1',1,1,1,0.0,0.0,2,'            ',1,0,1.0,0,1.0,0,1.0,0,1.0
0.0061,0.04956,100.0,
1.0,0.0,0.0,350.0,420.0,504.0,0,1,1.5,0.5,1.5,1.5,33,0,0.0,0.0
1.0,0.0
25,91,0,' 1',1,1,1,0.0,0.0,2,'            ',1,0,1.0,0,1.0,0,1.0,0,1.0
0.0061,0.04956,100.0,
1.0,0.0,0.0,350.0,420.0,504.0,0,1,1.5,0.5,1.5,1.5,33,0,0.0,0.0
1.0,0.0
26,83,0,' 1',1,1,1,0.0,0.0,2,'            ',1,0,1.0,0,1.0,0,1.0,0,1.0
0.0061,0.04956,100.0,
1.0,0.0,0.0,350.0,420.0,504.0,0,1,1.5,0.5,1.5,1.5,33,0,0.0,0.0
1.0,0.0
27,79,0,' 1',1,1,1,0.0,0.0,2,'            ',1,0,1.0,0,1.0,0,1.0,0,1.0
0.0061,0.04956,100.0,
1.0,0.0,0.0,350.0,420.0,504.0,0,1,1.5,0.5,1.5,1.5,33,0,0.0,0.0
1.0,0.0
29,82,0,' 1',1,1,1,0.0,0.0,2,'            ',1,0,1.0,0,1.0,0,1.0,0,1.0
0.0061,0.04956,100.0,
1.0,0.0,0.0,350.0,420.0,504.0,0,1,1.5,0.5,1.5,1.5,33,0,0.0,0.0
1.0,0.0
30,73,0,' 1',1,1,1,0.0,0.0,2,'            ',1,0,1.0,0,1.0,0,1.0,0,1.0
0.0061,0.04956,100.0,
1.0,0.0,0.0,350.0,420.0,504.0,0,1,1.5,0.5,1.5,1.5,33,0,0.0,0.0
1.0,0.0
31,94,0,' 1',1,1,1,0.0,0.0,2,'            ',1,0,1.0,0,1.0,0,1.0,0,1.0
0.0061,0.04956,100.0,
1.0,0.0,0.0,350.0,420.0,504.0,0,1,1.5,0.5,1.5,1.5,33,0,0.0,0.0
1.0,0.0
32,96,0,' 1',1,1,1,0.0,0.0,2,'            ',1,0,1.0,0,1.0,0,1.0,0,1.0
0.0061,0.04956,100.0,
1.0,0.0,0.0,350.0,420.0,504.0,0,1,1.5,0.5,1.5,1.5,33,0,0.0,0.0
1.0,0.0
33,84,0,' 1',1,1,1,0.0,0.0,2,'            ',1,0,1.0,0,1.0,0,1.0,0,1.0
0.0061,0.04956,100.0,
1.0,0.0,0.0,350.0,420.0,504.0,0,1,1.5,0.5,1.5,1.5,33,0,0.0,0.0
1.0,0.0
34,87,0,' 1',1,1,1,0.0,0.0,2,'            ',1,0,1.0,0,1.0,0,1.0,0,1.0
0.0061,0.04956,100.0,
1.0,0.0,0.0,350.0,420.0,504.0,0,1,1.5,0.5,1.5,1.5,33,0,0.0,0.0
1.0,0.0
35,103,0,' 1',1,1,1,0.0,0.0,2,'            ',1,0,1.0,0,1.0,0,1.0,0,1.0
0.0061,0.04956,100.0,
1.0,0.0,0.0,350.0,420.0,504.0,0,1,1.5,0.5,1.5,1.5,33,0,0.0,0.0
1.0,0.0
36,86,0,' 1',1,1,1,0.0,0.0,2,'            ',1,0,1.0,0,1.0,0,1.0,0,1.0
0.0061,0.04956,100.0,
1.0,0.0,0.0,350.0,420.0,504.0,0,1,1.5,0.5,1.5,1.5,33,0,0.0,0.0
1.0,0.0
37,76,0,' 1',1,1,1,0.0,0.0,2,'            ',1,0,1.0,0,1.0,0,1.0,0,1.0
0.0061,0.04956,100.0,
1.0,0.0,0.0,350.0,420.0,504.0,0,1,1.5,0.5,1.5,1.5,33,0,0.0,0.0
1.0,0.0
38,104,0,' 1',1,1,1,0.0,0.0,2,'            ',1,0,1.0,0,1.0,0,1.0,0,1.0
0.0061,0.04956,100.0,
1.0,0.0,0.0,350.0,420.0,504.0,0,1,1.5,0.5,1.5,1.5,33,0,0.0,0.0
1.0,0.0
40,78,0,' 1',1,1,1,0.0,0.0,2,'            ',1,0,1.0,0,1.0,0,1.0,0,1.0
0.0061,0.04956,100.0,
1.0,0.0,0.0,350.0,420.0,504.0,0,1,1.5,0.5,1.5,1.5,33,0,0.0,0.0
1.0,0.0
41,87,0,' 1',1,1,1,0.0,0.0,2,'            ',1,0,1.0,0,1.0,0,1.0,0,1.0
0.0061,0.04956,100.0,
1.0,0.0,0.0,350.0,420.0,504.0,0,1,1.5,0.5,1.5,1.5,33,0,0.0,0.0
1.0,0.0
42,88,0,' 1',1,1,1,0.0,0.0,2,'            ',1,0,1.0,0,1.0,0,1.0,0,1.0
0.0061,0.04956,100.0,
1.0,0.0,0.0,350.0,420.0,504.0,0,1,1.5,0.5,1.5,1.5,33,0,0.0,0.0
1.0,0.0
43,77,0,' 1',1,1,1,0.0,0.0,2,'            ',1,0,1.0,0,1.0,0,1.0,0,1.0
0.0061,0.04956,100.0,
1.0,0.0,0.0,350.0,420.0,504.0,0,1,1.5,0.5,1.5,1.5,33,0,0.0,0.0
1.0,0.0
44,89,0,' 1',1,1,1,0.0,0.0,2,'            ',1,0,1.0,0,1.0,0,1.0,0,1.0
0.0061,0.04956,100.0,
1.0,0.0,0.0,350.0,420.0,504.0,0,1,1.5,0.5,1.5,1.5,33,0,0.0,0.0
1.0,0.0
45,101,0,' 1',1,1,1,0.0,0.0,2,'            ',1,0,1.0,0,1.0,0,1.0,0,1.0
0.0061,0.04956,100.0,
1.0,0.0,0.0,350.0,420.0,504.0,0,1,1.5,0.5,1.5,1.5,33,0,0.0,0.0
1.0,0.0
47,93,0,' 1',1,1,1,0.0,0.0,2,'            ',1,0,1.0,0,1.0,0,1.0,0,1.0
0.0061,0.04956,100.0,
1.0,0.0,0.0,350.0,420.0,504.0,0,1,1.5,0.5,1.5,1.5,33,0,0.0,0.0
1.0,0.0
49,87,0,' 1',1,1,1,0.0,0.0,2,'            ',1,0,1.0,0,1.0,0,1.0,0,1.0
0.0061,0.04956,100.0,
1.0,0.0,0.0,350.0,420.0,504.0,0,1,1.5,0.5,1.5,1.5,33,0,0.0,0.0
1.0,0.0
50,77,0,' 1',1,1,1,0.0,0.0,2,'            ',1,0,1.0,0,1.0,0,1.0,0,1.0
0.0061,0.04956,100.0,
1.0,0.0,0.0,350.0,420.0,504.0,0,1,1.5,0.5,1.5,1.5,33,0,0.0,0.0
1.0,0.0
51,9,0,' 1',1,1,1,0.0,0.0,2,'            ',1,0,1.0,0,1.0,0,1.0,0,1.0
0.00228,0.07997,100.0,
1.0,0.0,0.0,700.0,840.0,1008.0,0,1,1.5,0.5,1.5,1.5,33,0,0.0,0.0
1.0,0.0
52,30,0,' 1',1,1,1,0.0,0.0,2,'            ',1,0,1.0,0,1.0,0,1.0,0,1.0
0.00228,0.07997,100.0,
1.0,0.0,0.0,700.0,840.0,1008.0,0,1,1.5,0.5,1.5,1.5,33,0,0.0,0.0
1.0,0.0
53,10,0,' 1',1,1,1,0.0,0.0,2,'            ',1,0,1.0,0,1.0,0,1.0,0,1.0
0.00228,0.07997,100.0,
1.0,0.0,0.0,700.0,840.0,1008.0,0,1,1.5,0.5,1.5,1.5,33,0,0.0,0.0
1.0,0.0
54,2,0,' 1',1,1,1,0.0,0.0,2,'            ',1,0,1.0,0,1.0,0,1.0,0,1.0
0.00228,0.07997,100.0,
1.0,0.0,0.0,700.0,840.0,1008.0,0,1,1.5,0.5,1.5,1.5,33,0,0.0,0.0
1.0,0.0
55,32,0,' 1',1,1,1,0.0,0.0,2,'            ',1,0,1.0,0,1.0,0,1.0,0,1.0
0.00228,0.07997,100.0,
1.0,0.0,0.0,700.0,840.0,1008.0,0,1,1.5,0.5,1.5,1.5,33,0,0.0,0.0
1.0,0.0
56,9,0,' 1',1,1,1,0.0,0.0,2,'            ',1,0,1.0,0,1.0,0,1.0,0,1.0
0.001630692,0.0126704768,100.0,
1.0,0.0,0.0,700.0,840.0,1008.0,0,1,1.5,0.5,1.5,1.5,33,0,0.0,0.0
1.0,0.0
56,34,0,' 1',1,1,1,0.0,0.0,2,'            ',1,0,1.0,0,1.0,0,1.0,0,1.0
0.00228,0.07997,100.0,
1.0,0.0,0.0,700.0,840.0,1008.0,0,1,1.5,0.5,1.5,1.5,33,0,0.0,0.0
1.0,0.0
57,1,0,' 1',1,1,1,0.0,0.0,2,'            ',1,0,1.0,0,1.0,0,1.0,0,1.0
0.00228,0.07997,100.0,
1.0,0.0,0.0,700.0,840.0,1008.0,0,1,1.5,0.5,1.5,1.5,33,0,0.0,0.0
1.0,0.0
58,35,0,' 1',1,1,1,0.0,0.0,2,'            ',1,0,1.0,0,1.0,0,1.0,0,1.0
0.00228,0.07997,100.0,
1.0,0.0,0.0,700.0,840.0,1008.0,0,1,1.5,0.5,1.5,1.5,33,0,0.0,0.0
1.0,0.0
...
0 / END OF TRANSFORMER DATA, BEGIN AREA INTERCHANGE DATA
1,0,0.0,10.0,'            '
0 / END OF AREA INTERCHANGE DATA, BEGIN TWO-TERMINAL DC LINE DATA
0 / END OF TWO-TERMINAL DC LINE DATA, BEGIN VSC DC LINE DATA
0 / END OF VSC DC LINE DATA, BEGIN SWITCHED SHUNT DATA
3,2,1.075,0.9875,0,100.0,'            ',39.99944621,15,-1.0,40,1.0,0,0.0,0,0.0,0,0.0,0,0.0,0,0.0,0,0.0
4,2,1.075,0.9875,0,100.0,'            ',-14.9851419,15,-1.0,40,1.0,0,0.0,0,0.0,0,0.0,0,0.0,0,0.0,0,0.0
5,2,1.075,0.9875,0,100.0,'            ',-7.25642886,15,-1.0,40,1.0,0,0.0,0,0.0,0,0.0,0,0.0,0,0.0,0,0.0
8,2,1.075,0.9875,0,100.0,'            ',-11.53919425,15,-1.0,40,1.0,0,0.0,0,0.0,0,0.0,0,0.0,0,0.0,0,0.0
20,2,1.075,0.9875,0,100.0,'            ',-14.87855055,15,-1.0,40,1.0,0,0.0,0,0.0,0,0.0,0,0.0,0,0.0,0,0.0
21,2,1.075,0.9875,0,100.0,'            ',-8.67981209,15,-1.0,40,1.0,0,0.0,0,0.0,0,0.0,0,0.0,0,0.0,0,0.0
26,2,1.075,0.9875,0,100.0,'            ',10.87377491,15,-1.0,40,1.0,0,0.0,0,0.0,0,0.0,0,0.0,0,0.0,0,0.0
29,2,1.075,0.9875,0,100.0,'            ',16.40803225,15,-1.0,40,1.0,0,0.0,0,0.0,0,0.0,0,0.0,0,0.0,0,0.0
35,2,1.075,0.9875,0,100.0,'            ',39.99944621,15,-1.0,40,1.0,0,0.0,0,0.0,0,0.0,0,0.0,0,0.0,0,0.0
38,2,1.075,0.9875,0,100.0,'            ',7.661122,15,-1.0,40,1.0,0,0.0,0,0.0,0,0.0,0,0.0,0,0.0,0,0.0
48,2,1.075,0.9875,0,100.0,'            ',19.98516519,15,-1.0,40,1.0,0,0.0,0,0.0,0,0.0,0,0.0,0,0.0,0,0.0
0 / END OF SWITCHED SHUNT DATA, BEGIN TRANSFORMER IMPEDANCE CORRECTION DATA
0 / END OF TRANSFORMER IMPEDANCE CORRECTION DATA, BEGIN MULTI-TERMINAL DC LINE DATA
0 / END OF MULTI-TERMINAL DC LINE DATA, BEGIN MULTI-SECTION LINE GROUPING DATA
0 / END OF MULTI-SECTION LINE GROUPING DATA, BEGIN ZONE DATA
0 / END OF ZONE DATA, BEGIN INTER-AREA TRANSFER DATA
0 / END OF INTER-AREA TRANSFER DATA, BEGIN OWNER DATA
0 / END OF OWNER DATA, BEGIN FACTS CONTROL DEVICE DATA
0 / END OF FACTS CONTROL DEVICE DATA, END OF CASE DATA
